<?xml version="1.0" encoding="UTF-8"?>

<!-- generated on 2026-03-13T21:32:30.930919+01:00 by Eclipse SUMO sumo 1.26.0
-->

<sumoConfiguration xmlns:xsi="http://www.w3.org/2001/XMLSchema-instance" xsi:noNamespaceSchemaLocation="http://sumo.dlr.de/xsd/sumoConfiguration.xsd">

    <input>
        <net-file value="osm.net.xml.gz"/>
        <additional-files value="netedit_cfg.add.xml"/>
    </input>

</sumoConfiguration>
