<?xml version="1.0" encoding="UTF-8"?>

<!-- generated on 2026-03-07T14:26:51.350202+01:00 by Eclipse SUMO polyconvert 1.26.0
<polyconvertConfiguration xmlns:xsi="http://www.w3.org/2001/XMLSchema-instance" xsi:noNamespaceSchemaLocation="http://sumo.dlr.de/xsd/polyconvertConfiguration.xsd">

    <input>
        <net-file value="osm.net.xml.gz"/>
        <osm-files value="osm_bbox.osm.xml.gz"/>
        <osm.keep-full-type value="true"/>
        <osm.merge-relations value="1"/>
        <type-file value="${SUMO_HOME}\data\typemap\osmPolyconvert.typ.xml"/>
    </input>

    <output>
        <output-file value="osm.poly.xml.gz"/>
    </output>

    <report>
        <verbose value="true"/>
    </report>

</polyconvertConfiguration>
-->

<additional xmlns:xsi="http://www.w3.org/2001/XMLSchema-instance" xsi:noNamespaceSchemaLocation="http://sumo.dlr.de/xsd/additional_file.xsd">
    <location netOffset="-2067867.87,-7241040.69" convBoundary="-21.04,0.00,6742.60,5490.58" origBoundary="18.575784,54.372601,18.636543,54.401322" projParameter="+proj=merc +a=6378137 +b=6378137 +lat_ts=0.0 +lon_0=0.0 +x_0=0.0 +y_0=0 +k=1.0 +units=m +nadgrids=@null +wktext +no_defs"/>

    <poly id="100156002" type="building.semidetached_house" color="255,230,230" fill="1" layer="-1.00" shape="2062.935889,2429.254832 2072.809928,2418.110110 2065.295862,2411.591506 2055.544275,2422.736219 2062.935889,2429.254832"/>
    <poly id="100156006" type="building.semidetached_house" color="255,230,230" fill="1" layer="-1.00" shape="2090.387276,2453.379482 2100.083203,2442.330307 2092.769513,2435.926380 2083.273960,2446.688803 2085.967892,2449.059214 2085.800912,2449.250377 2090.387276,2453.379482"/>
    <poly id="100156008" type="building.semidetached_house" color="255,230,230" fill="1" layer="-1.00" shape="2117.849794,2477.523322 2127.623645,2466.416764 2120.254295,2459.936353 2110.703083,2470.947320 2113.385882,2473.279506 2113.230035,2473.451553 2117.849794,2477.523322"/>
    <poly id="100156012" type="building.semidetached_house" color="255,230,230" fill="1" layer="-1.00" shape="2145.178729,2501.762819 2154.952580,2490.579761 2147.594362,2484.099330 2137.887302,2495.014749 2140.659158,2497.442524 2140.547838,2497.576339 2145.178729,2501.762819"/>
    <poly id="100156014" type="building.semidetached_house" color="255,230,230" fill="1" layer="-1.00" shape="2172.841622,2525.792109 2182.504154,2514.742832 2174.878769,2508.032985 2171.706164,2505.299345 2163.557577,2514.570785 2166.596599,2517.495592 2165.338689,2518.891088 2168.232995,2521.165940 2167.943565,2521.433569 2172.841622,2525.792109"/>
    <poly id="100156023" type="building.semidetached_house" color="255,230,230" fill="1" layer="-1.00" shape="2193.725159,2501.934866 2203.421086,2490.732692 2198.779064,2486.794730 2198.678876,2486.928544 2195.918153,2484.366958 2186.300149,2495.511774 2193.725159,2501.934866"/>
    <poly id="100156028" type="building.semidetached_house" color="255,230,230" fill="1" layer="-1.00" shape="2166.296036,2477.638020 2175.958568,2466.646159 2171.294281,2462.497931 2171.149566,2462.689093 2168.399975,2460.280445 2158.893290,2471.081134 2166.296036,2477.638020"/>
    <poly id="100156033" type="building.semidetached_house" color="255,230,230" fill="1" layer="-1.00" shape="2083.908481,2405.264069 2093.571013,2394.253194 2086.279586,2387.696378 2086.168267,2387.581681 2076.694978,2398.592547 2076.817430,2398.707244 2083.908481,2405.264069"/>
    <poly id="100156036" type="building.semidetached_house" color="255,230,230" fill="1" layer="-1.00" shape="2111.393263,2429.369529 2121.055795,2418.282155 2116.480564,2414.382462 2116.346981,2414.535391 2113.597389,2412.126758 2104.101837,2422.984729 2111.393263,2429.369529"/>
    <poly id="100156042" type="building.semidetached_house" color="255,230,230" fill="1" layer="-1.00" shape="2138.878046,2453.341249 2148.440390,2442.330307 2143.887423,2438.373253 2143.742707,2438.507066 2141.037644,2436.174890 2131.475300,2446.841733 2138.878046,2453.341249"/>
    <poly id="100156047" type="building.semidetached_house" color="255,230,230" fill="1" layer="-1.00" shape="2113.397014,2393.392970 2123.048414,2382.515924 2115.879439,2376.169394 2106.417282,2386.989083 2109.133478,2389.378592 2108.999894,2389.531521 2113.397014,2393.392970"/>
    <poly id="100156050" type="building.semidetached_house" color="255,230,230" fill="1" layer="-1.00" shape="2140.981984,2417.766019 2150.611120,2406.487501 2143.319693,2400.064487 2133.679425,2411.075371 2136.484677,2413.522236 2136.362225,2413.675165 2140.981984,2417.766019"/>
    <poly id="100156056" type="building.semidetached_house" color="255,230,230" fill="1" layer="-1.00" shape="2168.377711,2441.852401 2178.051375,2430.745894 2170.693156,2424.322860 2161.197604,2435.219081 2163.902667,2437.608605 2163.757952,2437.780651 2168.377711,2441.852401"/>
    <poly id="100156060" type="building.detached" color="255,230,230" fill="1" layer="-1.00" shape="2195.884757,2466.110904 2205.480497,2454.870548 2198.111147,2448.543076 2188.704650,2459.477563 2191.398581,2461.867094 2191.264998,2462.000908 2195.884757,2466.110904"/>
    <poly id="100156071" type="building.yes" color="255,230,230" fill="1" layer="-1.00" shape="2124.651415,2602.640455 2130.840778,2593.961524 2135.315822,2597.173110 2129.137590,2605.832927 2124.651415,2602.640455"/>
    <poly id="100156076" type="building.industrial" color="255,230,230" fill="1" layer="-1.00" shape="2129.716452,2570.562870 2138.622011,2560.431121 2124.562359,2548.158341 2115.578876,2558.194492 2129.716452,2570.562870"/>
    <poly id="100156086" type="building.semidetached_house" color="255,230,230" fill="1" layer="-1.00" shape="2000.708294,2512.544448 2010.170450,2501.973099 1998.114550,2491.134134 1988.752580,2501.877517 1993.016117,2505.700788 2000.708294,2512.544448"/>
    <poly id="100156089" type="building.semidetached_house" color="255,230,230" fill="1" layer="-1.00" shape="2062.924757,2552.765411 2072.375782,2541.926376 2069.670718,2539.555937 2069.826566,2539.383889 2065.262466,2535.388553 2055.555407,2546.342277 2062.924757,2552.765411"/>
    <poly id="100156097" type="building.semidetached_house" color="255,230,230" fill="1" layer="-1.00" shape="2076.372152,2579.165308 2085.711857,2567.963024 2078.487222,2561.520761 2073.533505,2567.160130 2070.271844,2564.235305 2065.440578,2569.951141 2068.524128,2572.550988 2076.372152,2579.165308"/>
    <poly id="100156099" type="building.industrial" color="255,230,230" fill="1" layer="-1.00" shape="2096.431924,2519.177834 2113.408146,2534.318033 2102.899586,2546.093763 2085.934496,2530.972658 2096.431924,2519.177834"/>
    <poly id="100156105" type="building.semidetached_house" color="255,230,230" fill="1" layer="-1.00" shape="2063.403431,2515.220742 2073.032567,2504.305294 2065.607557,2497.843968 2055.889365,2508.912337 2060.553652,2513.003241 2060.720631,2512.869427 2063.403431,2515.220742"/>
    <poly id="100156109" type="building.semidetached_house" color="255,230,230" fill="1" layer="-1.00" shape="2035.918649,2491.095902 2045.380805,2480.161371 2038.178434,2473.852995 2028.393451,2484.806633 2033.046606,2488.878408 2033.191321,2488.725478 2035.918649,2491.095902"/>
    <poly id="100156116" type="building.semidetached_house" color="255,230,230" fill="1" layer="-1.00" shape="2059.718756,2464.122813 2069.192044,2453.111855 2066.486981,2450.703210 2066.620564,2450.569396 2061.978541,2446.478525 2052.316010,2457.661519 2059.718756,2464.122813"/>
    <poly id="100156117" type="building.semidetached_house" color="255,230,230" fill="1" layer="-1.00" shape="2087.081087,2488.075523 2096.576639,2477.217462 2093.793652,2474.770577 2093.971763,2474.617646 2090.008789,2471.157599 2083.886217,2477.886532 2080.157014,2481.996536 2087.081087,2488.075523"/>
    <poly id="100156122" type="building.industrial" color="255,230,230" fill="1" layer="-1.00" shape="2115.300578,2498.016015 2132.098689,2512.984125 2124.996505,2520.955659 2108.198394,2505.987534 2115.300578,2498.016015"/>
    <poly id="100156818" type="building.semidetached_house" color="255,230,230" fill="1" layer="-1.00" shape="2070.394295,2435.792567 2080.190410,2424.705184 2072.809928,2418.110110 2062.935889,2429.254832 2070.394295,2435.792567"/>
    <poly id="100156819" type="building.semidetached_house" color="255,230,230" fill="1" layer="-1.00" shape="2097.879077,2459.496679 2100.328106,2456.820405 2103.200149,2459.286400 2107.419158,2454.488224 2104.524851,2452.041346 2107.441422,2448.715122 2100.083203,2442.330307 2090.387276,2453.379482 2094.995902,2457.317427 2095.151750,2457.126265 2097.879077,2459.496679"/>
    <poly id="100156820" type="building.semidetached_house" color="255,230,230" fill="1" layer="-1.00" shape="2125.363860,2483.793469 2135.004127,2472.878065 2127.623645,2466.416764 2117.849794,2477.523322 2122.491817,2481.575977 2122.636532,2481.403931 2125.363860,2483.793469"/>
    <poly id="100156821" type="building.semidetached_house" color="255,230,230" fill="1" layer="-1.00" shape="2155.765212,2509.829923 2160.206860,2504.936134 2157.501797,2502.565706 2162.221743,2496.945500 2154.952580,2490.579761 2145.178729,2501.762819 2149.687168,2505.739021 2149.809620,2505.586090 2152.692795,2508.052101 2153.160336,2507.497726 2155.765212,2509.829923"/>
    <poly id="100156822" type="building.semidetached_house" color="255,230,230" fill="1" layer="-1.00" shape="2120.989004,2399.796862 2130.462292,2389.034503 2127.311951,2386.243556 2133.011509,2379.686747 2128.770236,2375.997349 2123.048414,2382.515924 2113.397014,2393.392970 2118.161488,2397.598510 2118.295072,2397.445581 2120.989004,2399.796862"/>
    <poly id="100156823" type="building.semidetached_house" color="255,230,230" fill="1" layer="-1.00" shape="2148.529446,2424.055234 2158.136318,2413.063449 2150.611120,2406.487501 2140.981984,2417.766019 2145.624007,2421.818644 2145.757590,2421.684830 2148.529446,2424.055234"/>
    <poly id="100156824" type="building.semidetached_house" color="255,230,230" fill="1" layer="-1.00" shape="2175.947436,2448.160752 2185.420725,2437.226281 2178.051375,2430.745894 2168.377711,2441.852401 2173.008602,2445.905038 2173.164449,2445.732992 2175.947436,2448.160752"/>
    <poly id="100156826" type="building.semidetached_house" color="255,230,230" fill="1" layer="-1.00" shape="2201.094509,2508.319730 2210.757041,2497.194012 2208.029713,2494.785353 2203.421086,2490.732692 2193.725159,2501.934866 2201.094509,2508.319730"/>
    <poly id="100156827" type="building.semidetached_house" color="255,230,230" fill="1" layer="-1.00" shape="2173.542935,2484.041981 2183.038488,2473.279506 2180.355688,2470.832623 2180.511535,2470.641460 2175.958568,2466.646159 2166.296036,2477.638020 2173.542935,2484.041981"/>
    <poly id="100156828" type="building.semidetached_house" color="255,230,230" fill="1" layer="-1.00" shape="2138.878046,2453.341249 2142.696304,2456.686591 2146.180604,2459.764307 2155.742949,2449.078331 2153.060149,2446.650571 2153.182600,2446.516757 2148.440390,2442.330307 2138.878046,2453.341249"/>
    <poly id="100156829" type="building.semidetached_house" color="255,230,230" fill="1" layer="-1.00" shape="2118.740350,2435.830799 2128.224770,2424.991926 2125.519707,2422.583290 2125.664422,2422.430361 2121.055795,2418.282155 2111.393263,2429.369529 2118.740350,2435.830799"/>
    <poly id="100156830" type="building.semidetached_house" color="255,230,230" fill="1" layer="-1.00" shape="2091.255568,2411.725319 2100.840176,2400.867364 2098.112848,2398.496967 2098.268695,2398.344038 2093.571013,2394.253194 2083.908481,2405.264069 2091.255568,2411.725319"/>
    <poly id="100162933" type="building.semidetached_house" color="255,230,230" fill="1" layer="-1.00" shape="2134.380738,2369.555245 2143.965346,2358.506188 2139.323324,2354.434480 2139.200872,2354.606524 2136.473545,2352.217025 2132.020765,2357.320995 2126.966860,2352.886085 2121.912955,2358.697348 2126.911200,2363.113146 2134.380738,2369.555245"/>
    <poly id="100162935" type="building.semidetached_house" color="255,230,230" fill="1" layer="-1.00" shape="2161.820993,2393.794408 2171.394469,2382.745316 2166.808106,2378.673596 2166.685655,2378.845641 2164.047383,2376.456134 2154.518434,2387.428753 2161.820993,2393.794408"/>
    <poly id="100162937" type="building.semidetached_house" color="255,230,230" fill="1" layer="-1.00" shape="2189.127664,2417.861600 2198.678876,2406.678662 2194.304020,2402.855439 2194.170437,2403.008368 2191.454241,2400.599738 2189.695393,2402.549581 2186.110906,2399.414540 2180.700778,2405.589043 2184.263002,2408.743203 2181.980953,2411.610622 2189.127664,2417.861600"/>
    <poly id="100162940" type="building.semidetached_house" color="255,230,230" fill="1" layer="-1.00" shape="2216.567918,2442.215609 2226.330638,2430.956172 2221.722011,2426.884427 2221.566163,2427.056472 2218.805440,2424.647835 2209.176304,2435.792567 2216.567918,2442.215609"/>
    <poly id="100162942" type="building.semidetached_house" color="255,230,230" fill="1" layer="-1.00" shape="2142.262158,2338.778498 2151.924690,2327.825063 2144.677791,2321.421230 2135.082051,2332.221728 2137.809379,2334.592105 2137.664663,2334.745032 2142.262158,2338.778498"/>
    <poly id="100162944" type="building.semidetached_house" color="255,230,230" fill="1" layer="-1.00" shape="2169.680149,2362.998449 2179.353813,2351.911169 2172.073518,2345.526433 2162.577965,2356.537240 2165.171709,2358.754696 2165.038126,2358.926740 2169.680149,2362.998449"/>
    <poly id="100162947" type="building.semidetached_house" color="255,230,230" fill="1" layer="-1.00" shape="2198.656612,2388.499253 2208.330276,2377.431053 2200.994322,2370.950715 2191.465373,2381.865977 2194.170437,2384.274601 2194.014589,2384.427530 2198.656612,2388.499253"/>
    <poly id="100162950" type="building.semidetached_house" color="255,230,230" fill="1" layer="-1.00" shape="2225.974415,2412.662010 2235.737135,2401.498195 2228.323257,2395.094302 2218.772044,2406.105178 2221.465976,2408.456461 2221.332393,2408.609390 2225.974415,2412.662010"/>
    <poly id="100162952" type="building.semidetached_house" color="255,230,230" fill="1" layer="-1.00" shape="2249.607543,2426.616800 2260.405534,2436.174890 2268.465065,2426.941775 2268.620912,2427.056472 2272.572754,2422.545058 2261.685708,2412.967868 2249.607543,2426.616800"/>
    <poly id="100162955" type="building.semidetached_house" color="255,230,230" fill="1" layer="-1.00" shape="2247.247570,2388.747762 2256.798782,2377.564865 2252.167891,2373.722540 2252.034308,2373.875469 2249.318113,2371.485964 2239.867088,2382.343879 2247.247570,2388.747762"/>
    <poly id="100162958" type="building.semidetached_house" color="255,230,230" fill="1" layer="-1.00" shape="2219.695996,2364.623311 2229.358528,2353.612492 2224.761033,2349.559903 2224.616318,2349.731947 2221.888990,2347.342450 2212.415701,2358.200332 2219.695996,2364.623311"/>
    <poly id="100162960" type="building.semidetached_house" color="255,230,230" fill="1" layer="-1.00" shape="2190.597081,2339.103469 2200.359800,2328.054455 2195.773437,2324.040111 2195.628722,2324.231270 2192.923658,2321.803548 2183.461502,2332.718742 2190.597081,2339.103469"/>
    <poly id="100162964" type="building.semidetached_house" color="255,230,230" fill="1" layer="-1.00" shape="2163.312674,2315.036518 2172.808226,2303.911074 2168.155072,2299.915858 2168.010356,2300.087901 2165.405480,2297.813114 2155.976719,2308.556232 2163.312674,2315.036518"/>
    <poly id="100162967" type="building.semidetached_house" color="255,230,230" fill="1" layer="-1.00" shape="2191.921783,2302.592079 2201.562051,2291.524000 2194.281756,2285.081965 2186.122038,2294.448724 2184.619224,2296.169151 2191.921783,2302.592079"/>
    <poly id="100162969" type="building.detached" color="255,230,230" fill="1" layer="-1.00" shape="2226.375165,2294.066408 2236.193545,2283.457120 2236.349392,2283.610047 2244.074965,2275.218206 2238.965400,2270.401026 2240.412553,2268.814416 2236.115621,2264.895681 2234.679599,2266.482291 2228.568159,2260.938717 2220.898247,2269.254079 2221.900122,2270.190753 2212.037215,2280.800022 2226.375165,2294.066408"/>
    <poly id="100162971" type="building.semidetached_house" color="255,230,230" fill="1" layer="-1.00" shape="2219.284114,2326.697224 2228.946646,2315.571763 2221.733143,2309.301751 2212.293250,2320.140464 2214.987182,2322.549069 2214.797938,2322.759344 2219.284114,2326.697224"/>
    <poly id="100162974" type="building.semidetached_house" color="255,230,230" fill="1" layer="-1.00" shape="2246.768896,2350.764210 2256.431428,2339.887223 2249.095474,2333.445148 2239.633317,2344.150083 2242.371776,2346.558695 2242.249325,2346.788087 2246.768896,2350.764210"/>
    <poly id="100162977" type="building.semidetached_house" color="255,230,230" fill="1" layer="-1.00" shape="2274.198019,2374.850387 2283.916210,2363.935134 2276.647048,2357.512155 2267.140363,2368.370051 2269.845427,2370.740439 2269.711843,2370.912483 2274.198019,2374.850387"/>
    <poly id="100162980" type="building.detached" color="255,230,230" fill="1" layer="-1.00" shape="2295.760604,2393.545899 2298.376612,2390.602022 2301.526954,2393.354738 2308.462158,2385.574494 2305.278421,2382.764432 2297.619640,2375.997349 2287.968240,2387.008199 2292.910825,2391.309317 2293.055540,2391.156388 2295.760604,2393.545899"/>
    <poly id="100162981" type="building.semidetached_house" color="255,230,230" fill="1" layer="-1.00" shape="2141.649901,2375.806189 2151.145454,2365.120327 2148.429258,2362.730825 2148.573973,2362.577897 2143.965346,2358.506188 2134.380738,2369.555245 2141.649901,2375.806189"/>
    <poly id="100162983" type="building.semidetached_house" color="255,230,230" fill="1" layer="-1.00" shape="2149.698300,2345.086765 2159.193853,2334.248018 2151.924690,2327.825063 2142.262158,2338.778498 2146.815125,2342.850197 2146.948709,2342.697269 2149.698300,2345.086765"/>
    <poly id="100162984" type="building.semidetached_house" color="255,230,230" fill="1" layer="-1.00" shape="2177.238742,2369.211156 2186.712031,2358.372376 2179.353813,2351.911169 2169.680149,2362.998449 2174.355567,2366.993697 2174.489151,2366.821653 2177.238742,2369.211156"/>
    <poly id="100162985" type="building.semidetached_house" color="255,230,230" fill="1" layer="-1.00" shape="2211.057604,2395.400159 2216.935273,2388.709530 2213.851723,2385.975931 2215.666230,2383.911396 2208.330276,2377.431053 2198.656612,2388.499253 2203.287503,2392.570978 2203.421086,2392.398933 2206.148414,2394.788444 2207.985186,2392.685675 2211.057604,2395.400159"/>
    <poly id="100162987" type="building.semidetached_house" color="255,230,230" fill="1" layer="-1.00" shape="2240.713116,2422.296547 2254.305226,2406.449268 2251.978648,2404.346496 2248.160390,2400.905596 2242.416304,2407.271262 2235.737135,2401.498195 2225.974415,2412.662010 2230.594174,2416.695515 2230.738890,2416.542586 2233.410557,2418.874756 2234.824315,2417.230767 2240.713116,2422.296547"/>
    <poly id="100162988" type="building.semidetached_house" color="255,230,230" fill="1" layer="-1.00" shape="2261.685708,2412.967868 2272.572754,2422.545058 2276.580256,2417.957181 2276.424409,2417.785135 2278.851173,2415.051527 2276.702707,2413.101681 2281.522841,2407.328610 2275.088575,2401.708472 2270.257309,2407.615352 2268.142238,2405.627275 2261.685708,2412.967868"/>
    <poly id="100162991" type="building.semidetached_house" color="255,230,230" fill="1" layer="-1.00" shape="2223.235956,2448.179868 2233.388293,2437.685070 2230.805681,2435.161732 2230.917001,2435.008803 2226.330638,2430.956172 2216.567918,2442.215609 2223.235956,2448.179868"/>
    <poly id="100162993" type="building.semidetached_house" color="255,230,230" fill="1" layer="-1.00" shape="2196.586070,2424.341977 2206.059358,2413.426655 2203.354295,2411.037138 2203.487878,2410.884209 2198.678876,2406.678662 2189.127664,2417.861600 2196.586070,2424.341977"/>
    <poly id="100162997" type="building.semidetached_house" color="255,230,230" fill="1" layer="-1.00" shape="2169.123551,2400.160068 2178.563444,2389.283012 2175.847249,2386.931735 2175.980832,2386.778806 2171.394469,2382.745316 2161.820993,2393.794408 2169.123551,2400.160068"/>
    <poly id="100162999" type="building.semidetached_house" color="255,230,230" fill="1" layer="-1.00" shape="2170.670892,2321.478578 2180.155313,2310.601631 2177.416853,2308.231262 2177.572701,2308.040103 2172.808226,2303.911074 2163.312674,2315.036518 2170.670892,2321.478578"/>
    <poly id="100163003" type="building.semidetached_house" color="255,230,230" fill="1" layer="-1.00" shape="2204.467490,2351.031834 2208.864610,2346.042564 2214.029834,2340.250426 2207.562172,2334.649453 2204.823712,2332.298192 2204.946163,2332.068801 2200.359800,2328.054455 2190.597081,2339.103469 2198.122279,2345.488201 2204.467490,2351.031834"/>
    <poly id="100163004" type="building.semidetached_house" color="255,230,230" fill="1" layer="-1.00" shape="2227.020819,2371.065411 2236.494107,2360.188396 2233.777912,2357.798895 2233.922627,2357.645967 2229.358528,2353.612492 2219.695996,2364.623311 2227.020819,2371.065411"/>
    <poly id="100163007" type="building.semidetached_house" color="255,230,230" fill="1" layer="-1.00" shape="2254.516733,2395.189882 2263.912098,2384.293717 2261.218166,2381.865977 2261.374013,2381.713049 2256.798782,2377.564865 2247.247570,2388.747762 2254.516733,2395.189882"/>
    <poly id="100163012" type="building.semidetached_house" color="255,230,230" fill="1" layer="-1.00" shape="2281.689820,2381.196915 2291.218769,2370.377234 2283.916210,2363.935134 2274.198019,2374.850387 2278.873437,2378.979453 2279.007021,2378.826525 2281.689820,2381.196915"/>
    <poly id="100163013" type="building.semidetached_house" color="255,230,230" fill="1" layer="-1.00" shape="2254.271830,2357.091603 2263.733987,2346.291071 2256.431428,2339.887223 2246.768896,2350.764210 2251.355259,2354.797684 2251.522238,2354.663872 2254.271830,2357.091603"/>
    <poly id="100163019" type="building.semidetached_house" color="255,230,230" fill="1" layer="-1.00" shape="2226.909499,2333.005482 2236.405052,2322.090287 2228.946646,2315.571763 2219.284114,2326.697224 2224.004060,2330.883612 2224.193303,2330.654221 2226.909499,2333.005482"/>
    <poly id="100163020" type="building.semidetached_house" color="255,230,230" fill="1" layer="-1.00" shape="2199.213210,2309.034129 2208.864610,2297.946925 2201.562051,2291.524000 2191.921783,2302.592079 2199.213210,2309.034129"/>
    <poly id="100163291" type="amenity.parking" color="184,184,179" fill="1" layer="-1.00" shape="2388.422948,2218.501834 2381.331897,2212.346593 2355.227476,2190.745943 2337.772580,2175.969602 2330.102667,2168.973311 2327.419867,2165.972172 2327.141569,2161.021250 2328.844757,2157.064339 2351.052995,2131.736326 2355.171816,2117.055674 2360.637603,2096.411054 2368.897510,2098.781360 2374.107262,2095.589094 2376.144408,2087.140108 2455.615393,2109.562436 2452.965989,2119.292178 2480.083417,2127.014812 2475.074040,2136.285805 2469.363350,2146.072927 2482.298675,2157.962768 2484.736572,2160.199283 2460.602506,2189.503429 2427.195527,2159.319969 2388.701247,2203.878367 2395.469472,2210.129179 2388.422948,2218.501834"/>
    <poly id="100163292" type="amenity.recycling" color="237,199,199" fill="1" layer="-1.00" shape="2516.941300,2199.711161 2550.281488,2173.924238 2565.587918,2192.925121 2532.258862,2218.712106 2516.941300,2199.711161"/>
    <poly id="100163292#1" type="building.yes" color="255,230,230" fill="1" layer="-1.00" shape="2516.941300,2199.711161 2550.281488,2173.924238 2565.587918,2192.925121 2532.258862,2218.712106 2516.941300,2199.711161"/>
    <poly id="100223963" type="landuse.allotments" color="194,194,130" fill="1" layer="-3.00" shape="2598.772258,2697.440234 2468.606377,2624.433406 2428.208534,2668.497409 2387.075982,2711.854336 2380.229834,2715.104203 2333.542439,2759.570172 2332.150946,2758.079048 2288.257670,2800.958543 2247.269834,2840.989812 2218.916760,2870.411204 2159.004610,2933.957200 2179.097778,2950.665830 2233.699988,2996.050777 2236.527503,2998.287531 2239.277094,3000.447816 2247.158514,2999.166939 2254.416545,2995.075781 2345.320041,2907.709047 2436.524100,2820.859449 2459.789874,2799.429177 2471.712191,2789.583888 2491.237630,2774.271144 2510.417978,2761.806859 2533.160550,2749.361712 2537.001073,2747.258847 2557.528387,2736.973935 2567.335634,2732.825563 2575.640068,2727.797816 2598.772258,2697.440234"/>
    <poly id="1011222399" type="landuse.grass" color="194,194,130" fill="1" layer="-3.00" shape="3358.216088,1177.665762 3357.336664,1170.421891 3358.216088,1167.975413 3359.418339,1166.962419 3388.561781,1152.226233 3389.764032,1153.927296 3358.216088,1177.665762"/>
    <poly id="1014537719" type="landuse.construction" color="194,194,130" fill="1" layer="-3.00" shape="2876.937402,1691.806577 2864.224716,1674.164026 2862.154173,1669.672158 2858.113276,1671.029276 2855.252365,1667.818069 2854.450864,1662.695433 2850.543550,1659.235744 2846.246618,1658.050658 2839.678768,1662.848348 2838.721420,1663.421777 2836.984836,1664.453950 2831.853008,1669.079614 2831.218487,1669.729501 2825.463269,1675.482915 2821.322184,1680.223273 2814.008493,1687.945474 2808.921193,1693.737130 2807.362720,1695.514767 2802.286551,1700.121336 2801.807877,1700.560967 2799.447904,1703.600157 2796.253035,1705.530713 2787.247288,1713.520541 2777.985506,1719.579818 2769.146739,1726.480136 2752.727114,1739.114806 2752.048065,1739.630897 2747.795660,1742.880362 2745.691722,1744.065461 2732.155272,1754.196156 2741.973651,1767.939515 2744.678715,1771.743314 2751.513731,1777.649720 2768.345238,1788.449469 2772.263684,1788.334781 2774.189512,1787.455509 2811.804368,1775.470657 2817.381474,1776.713105 2839.957067,1781.835815 2842.506283,1781.281492 2850.376571,1784.263370 2892.154776,1799.402150 2892.711373,1800.147621 2935.869940,1815.993676 2935.881072,1815.248203 2936.482197,1757.158909 2934.834669,1752.456734 2934.990516,1737.604761 2936.849552,1731.488127 2937.072191,1718.929927 2902.151266,1720.573769 2893.178915,1713.902830 2886.243711,1704.402963 2876.937402,1691.806577"/>
    <poly id="1014537722" type="natural.scrub" color="140,196,107" fill="1" layer="-4.00" shape="2937.072191,1718.929927 2976.802117,1717.056711 2986.575968,1717.171398 2989.013865,1717.190513 2993.377589,1717.266970 2992.275526,1768.818785 2992.409109,1774.056178 2976.078540,1774.037063 2973.996866,1829.469537 2962.798125,1825.895086 2935.869940,1815.993676 2935.881072,1815.248203 2936.482197,1757.158909 2934.834669,1752.456734 2934.990516,1737.604761 2936.849552,1731.488127 2937.072191,1718.929927"/>
    <poly id="1017603247" type="amenity.parking" color="184,184,179" fill="1" layer="-1.00" shape="2353.535420,2258.969794 2346.733799,2253.024794 2381.331897,2212.346593 2388.422948,2218.501834 2353.535420,2258.969794"/>
    <poly id="1027195293" type="landuse.grass" color="194,194,130" fill="1" layer="-3.00" shape="3486.879156,1488.890961 3486.979343,1487.552990 3487.413489,1486.425271 3488.359705,1485.488691 3489.984969,1484.074264 3492.389470,1482.793635 3493.870020,1482.334902 3497.120549,1483.023001 3500.025987,1484.418314 3504.356316,1486.387043 3506.671761,1486.864890 3509.287769,1487.113370 3510.167193,1487.266281 3510.122665,1487.763242 3508.786831,1488.699823 3502.196717,1492.388803 3496.920174,1494.892723 3495.450756,1495.351457 3493.725304,1495.198546 3491.999852,1494.644243 3489.829122,1493.325384 3487.368961,1490.917033 3486.879156,1488.890961"/>
    <poly id="102720099" type="building.yes" color="255,230,230" fill="1" layer="-1.00" shape="2146.581354,1577.847482 2148.774348,1572.094139 2139.545963,1568.577148 2150.399613,1538.912155 2159.461020,1542.333563 2164.347945,1529.584526 2221.844462,1551.603865 2222.879733,1548.698532 2228.824194,1551.087786 2228.256465,1553.859322 2265.993772,1568.921202 2267.719224,1568.768289 2269.533732,1568.978544 2271.036545,1569.647537 2272.194268,1570.928180 2273.162747,1572.476421 2273.507838,1574.368716 2272.249928,1578.229764 2268.286954,1580.580798 2262.999278,1595.508930 2265.025293,1596.598437 2257.911977,1615.999319 2244.386659,1610.704689 2244.731749,1609.901894 2245.165896,1610.054807 2256.921234,1579.835348 2170.971455,1546.385735 2159.216117,1576.605065 2157.357081,1581.632074 2146.581354,1577.847482"/>
    <poly id="102720100" type="building.yes" color="255,230,230" fill="1" layer="-1.00" shape="2215.399064,1521.097922 2208.675366,1518.651335 2209.454603,1516.720826 2206.304261,1515.516647 2207.283873,1513.165632 2199.313397,1510.183857 2198.422841,1512.630441 2195.361555,1511.502719 2194.682506,1513.394999 2187.947677,1511.005756 2189.339171,1507.125628 2183.839988,1505.118666 2182.448494,1508.998793 2173.119921,1505.558286 2173.888026,1503.608666 2168.377711,1501.525249 2167.687530,1503.474868 2160.952701,1501.066515 2161.642882,1499.136010 2158.581596,1498.008289 2159.449888,1495.599938 2155.297671,1494.089940 2160.184596,1480.538199 2164.347945,1482.067308 2165.216237,1479.678075 2205.224462,1494.261965 2204.300510,1496.804113 2212.115139,1499.652085 2213.005695,1497.262847 2252.858072,1511.999681 2252.045440,1514.236012 2256.175393,1515.726900 2251.221676,1529.297816 2247.058327,1527.883382 2246.190035,1530.157945 2243.106485,1529.125790 2242.460832,1530.979847 2235.681475,1528.590599 2236.371656,1526.602745 2230.872473,1524.557550 2230.215688,1526.545403 2220.864851,1523.085774 2222.345400,1519.243868 2216.812821,1517.179561 2215.399064,1521.097922"/>