<?xml version="1.0" encoding="UTF-8"?>

<!-- generated on 2026-03-14T14:37:02.917864+01:00 by Eclipse SUMO netedit 1.26.0
<neteditConfiguration xmlns:xsi="http://www.w3.org/2001/XMLSchema-instance" xsi:noNamespaceSchemaLocation="http://sumo.dlr.de/xsd/neteditConfiguration.xsd">

    <input>
        <sumocfg-file value="C:\Users\breje\Desktop\projektKoncowy\simulation\osm.sumocfg"/>
        <additional-files value="C:\Users\breje\Desktop\projektKoncowy\simulation\osm.add.xml"/>
        <route-files value="C:\Users\breje\Desktop\projektKoncowy\simulation\demand/netedit_cfg.rou.xml,C:\Users\breje\Desktop\projektKoncowy\simulation\demand/osm_pt.rou.xml,C:\Users\breje\Desktop\projektKoncowy\simulation\demand/cars.rou.xml"/>
        <sumo-net-file value="C:\Users\breje\Desktop\projektKoncowy\simulation\network/osm.net.xml"/>
    </input>

    <output>
        <output-file value="C:\Users\breje\Desktop\projektKoncowy\simulation\network/osm.net.xml"/>
        <output.street-names value="true"/>
    </output>

    <processing>
        <geometry.min-radius.fix.railways value="false"/>
        <geometry.avoid-overlap value="false"/>
        <geometry.max-grade.fix value="false"/>
        <offset.disable-normalization value="true"/>
        <lefthand value="0"/>
    </processing>

    <junctions>
        <no-turnarounds value="true"/>
        <junctions.corner-detail value="5"/>
        <junctions.limit-turn-speed value="5.50"/>
        <rectangular-lane-cut value="0"/>
    </junctions>

    <pedestrian>
        <walkingareas value="0"/>
    </pedestrian>

</neteditConfiguration>
-->

<net version="1.20" junctionCornerDetail="5" limitTurnSpeed="5.50" avoidOverlap="0" xmlns:xsi="http://www.w3.org/2001/XMLSchema-instance" xsi:noNamespaceSchemaLocation="http://sumo.dlr.de/xsd/net_file.xsd">

    <location netOffset="-2067867.87,-7241040.69" convBoundary="1610.82,1459.77,3017.92,2760.16" origBoundary="18.575973,54.372601,18.623863,54.401309" projParameter="+proj=merc +a=6378137 +b=6378137 +lat_ts=0.0 +lon_0=0.0 +x_0=0.0 +y_0=0 +k=1.0 +units=m +nadgrids=@null +wktext +no_defs"/>

    <type id="highway.primary" priority="12" numLanes="2" speed="27.78" disallow="tram rail_urban rail rail_electric rail_fast ship container cable_car subway aircraft wheelchair scooter drone" oneway="0"/>
    <type id="highway.primary_link" priority="7" numLanes="1" speed="22.22" disallow="tram rail_urban rail rail_electric rail_fast ship container cable_car subway aircraft wheelchair scooter drone" oneway="0"/>
    <type id="highway.residential" priority="3" numLanes="1" speed="13.89" disallow="tram rail_urban rail rail_electric rail_fast ship container cable_car subway aircraft wheelchair scooter drone" oneway="0"/>
    <type id="highway.secondary" priority="11" numLanes="1" speed="27.78" disallow="tram rail_urban rail rail_electric rail_fast ship container cable_car subway aircraft wheelchair scooter drone" oneway="0"/>
    <type id="highway.service" priority="1" numLanes="1" speed="5.56" allow="pedestrian delivery bicycle" oneway="0"/>
    <type id="highway.unclassified" priority="4" numLanes="1" speed="13.89" disallow="tram rail_urban rail rail_electric rail_fast ship container cable_car subway aircraft wheelchair scooter drone" oneway="0"/>
    <type id="railway.tram" priority="17" numLanes="1" speed="13.89" allow="tram" oneway="1"/>

    <edge id=":1027663419_0" function="internal">
        <lane id=":1027663419_0_0" index="0" disallow="tram rail_urban rail rail_electric rail_fast ship container cable_car subway aircraft wheelchair scooter drone" speed="11.11" length="6.66" width="4.00" shape="2539.93,2116.90 2538.96,2115.21 2538.63,2113.86 2538.31,2112.51 2537.35,2110.82"/>
    </edge>
    <edge id=":1027663419_1" function="internal">
        <lane id=":1027663419_1_0" index="0" disallow="tram rail_urban rail rail_electric rail_fast ship container cable_car subway aircraft wheelchair scooter drone" speed="9.36" length="5.94" shape="2541.35,2109.32 2541.28,2111.09 2541.26,2112.36 2541.56,2113.52 2542.47,2114.96"/>
    </edge>
    <edge id=":1101584170_0" function="internal">
        <lane id=":1101584170_0_0" index="0" disallow="pedestrian tram rail_urban rail rail_electric rail_fast ship container cable_car subway aircraft wheelchair scooter drone" speed="7.65" length="5.14" shape="2361.88,1774.57 2363.17,1775.33 2364.18,1775.62 2365.26,1775.57 2366.75,1775.29"/>
    </edge>
    <edge id=":1101584170_1" function="internal">
        <lane id=":1101584170_1_0" index="0" disallow="pedestrian tram rail_urban rail rail_electric rail_fast ship container cable_car subway aircraft wheelchair scooter drone" speed="13.89" length="6.15" shape="2360.10,1777.23 2361.72,1778.04 2362.99,1778.30 2364.24,1778.58 2365.83,1779.45"/>
        <lane id=":1101584170_1_1" index="1" disallow="pedestrian tram rail_urban rail rail_electric rail_fast ship container cable_car subway aircraft wheelchair scooter drone" speed="13.89" length="6.15" shape="2358.31,1779.88 2359.90,1780.68 2361.15,1780.93 2362.39,1781.19 2363.95,1782.04"/>
    </edge>
    <edge id=":11436010039_0" function="internal">
        <lane id=":11436010039_0_0" index="0" disallow="tram rail_urban rail rail_electric rail_fast ship container cable_car subway aircraft wheelchair scooter drone" speed="13.89" length="0.30" shape="2412.04,2009.26 2411.82,2009.48"/>
        <lane id=":11436010039_0_1" index="1" disallow="tram rail_urban rail rail_electric rail_fast ship container cable_car subway aircraft wheelchair scooter drone" speed="13.89" length="0.30" shape="2409.76,2007.01 2409.55,2007.23"/>
        <lane id=":11436010039_0_2" index="2" disallow="tram rail_urban rail rail_electric rail_fast ship container cable_car subway aircraft wheelchair scooter drone" speed="13.89" length="0.30" shape="2407.48,2004.77 2407.29,2004.97"/>
    </edge>
    <edge id=":12610341666_0" function="internal">
        <lane id=":12610341666_0_0" index="0" disallow="pedestrian tram rail_urban rail rail_electric rail_fast ship container cable_car subway aircraft wheelchair scooter drone" speed="13.89" length="0.10" shape="2687.99,2239.42 2687.99,2239.42"/>
        <lane id=":12610341666_0_1" index="1" disallow="pedestrian tram rail_urban rail rail_electric rail_fast ship container cable_car subway aircraft wheelchair scooter drone" speed="13.89" length="0.10" shape="2690.57,2237.52 2690.57,2237.52"/>
    </edge>
    <edge id=":12610354263_0" function="internal">
        <lane id=":12610354263_0_0" index="0" disallow="pedestrian tram rail_urban rail rail_electric rail_fast ship container cable_car subway aircraft wheelchair scooter drone" speed="13.89" length="0.30" shape="2720.63,2211.84 2720.84,2212.05"/>
        <lane id=":12610354263_0_1" index="1" disallow="pedestrian tram rail_urban rail rail_electric rail_fast ship container cable_car subway aircraft wheelchair scooter drone" speed="13.89" length="0.30" shape="2718.38,2214.13 2718.60,2214.34"/>
    </edge>
    <edge id=":1664172659_0" function="internal">
        <lane id=":1664172659_0_0" index="0" disallow="pedestrian tram rail_urban rail rail_electric rail_fast ship container cable_car subway aircraft wheelchair scooter drone" speed="7.60" length="8.74" shape="2466.94,1807.95 2469.59,1808.73 2471.85,1808.90 2473.72,1808.48 2475.19,1807.46"/>
        <lane id=":1664172659_0_1" index="1" disallow="pedestrian tram rail_urban rail rail_electric rail_fast ship container cable_car subway aircraft wheelchair scooter drone" speed="8.97" length="12.47" shape="2465.81,1810.94 2469.41,1811.95 2472.56,1812.08 2475.25,1811.32 2477.49,1809.68"/>
    </edge>
    <edge id=":1664172659_2" function="internal">
        <lane id=":1664172659_2_0" index="0" disallow="pedestrian tram rail_urban rail rail_electric rail_fast ship container cable_car subway aircraft wheelchair scooter drone" speed="13.89" length="11.80" shape="2467.21,1816.41 2475.19,1807.46"/>
        <lane id=":1664172659_2_1" index="1" disallow="pedestrian tram rail_urban rail rail_electric rail_fast ship container cable_car subway aircraft wheelchair scooter drone" speed="13.89" length="11.80" shape="2469.64,1818.49 2477.49,1809.68"/>
        <lane id=":1664172659_2_2" index="2" disallow="pedestrian tram rail_urban rail rail_electric rail_fast ship container cable_car subway aircraft wheelchair scooter drone" speed="13.89" length="11.80" shape="2472.08,1820.57 2479.79,1811.91"/>
    </edge>
    <edge id=":1664172675_0" function="internal">
        <lane id=":1664172675_0_0" index="0" disallow="tram rail_urban rail rail_electric rail_fast ship container cable_car subway aircraft wheelchair scooter drone" speed="7.48" length="6.84" width="3.00" shape="2717.15,2107.74 2715.62,2109.05 2714.56,2110.42 2713.95,2111.87 2713.80,2113.38"/>
    </edge>
    <edge id=":1664172675_1" function="internal">
        <lane id=":1664172675_1_0" index="0" disallow="tram rail_urban rail rail_electric rail_fast ship container cable_car subway aircraft wheelchair scooter drone" speed="13.89" length="7.53" width="3.00" shape="2712.24,2106.12 2713.17,2108.13 2713.59,2109.60 2713.71,2111.15 2713.80,2113.38"/>
    </edge>
    <edge id=":1664172676_0" function="internal">
        <lane id=":1664172676_0_0" index="0" disallow="tram rail_urban rail rail_electric rail_fast ship container cable_car subway aircraft wheelchair scooter drone" speed="7.27" length="6.99" width="3.00" shape="2683.50,2095.78 2685.23,2096.83 2686.89,2097.39 2688.50,2097.46 2690.05,2097.04"/>
    </edge>
    <edge id=":1664172676_1" function="internal">
        <lane id=":1664172676_1_0" index="0" disallow="tram rail_urban rail rail_electric rail_fast ship container cable_car subway aircraft wheelchair scooter drone" speed="13.89" length="7.78" width="3.00" shape="2683.58,2101.19 2685.19,2099.55 2686.46,2098.63 2687.92,2097.94 2690.05,2097.04"/>
    </edge>
    <edge id=":1664172677_0" function="internal">
        <lane id=":1664172677_0_0" index="0" disallow="tram rail_urban rail rail_electric rail_fast ship container cable_car subway aircraft wheelchair scooter drone" speed="13.89" length="6.92" width="3.00" shape="2688.58,2129.54 2686.72,2128.72 2685.56,2127.94 2684.56,2126.92 2683.20,2125.38"/>
    </edge>
    <edge id=":1664172677_1" function="internal">
        <lane id=":1664172677_1_0" index="0" disallow="tram rail_urban rail rail_electric rail_fast ship container cable_car subway aircraft wheelchair scooter drone" speed="8.41" length="6.48" width="3.00" shape="2684.58,2131.55 2684.59,2129.53 2684.37,2127.83 2683.90,2126.45 2683.20,2125.38"/>
    </edge>
    <edge id=":1664172679_0" function="internal">
        <lane id=":1664172679_0_0" index="0" disallow="tram rail_urban rail rail_electric rail_fast ship container cable_car subway aircraft wheelchair scooter drone" speed="8.37" length="6.90" shape="2703.55,2097.39 2705.27,2097.80 2706.95,2097.85 2708.61,2097.52 2710.23,2096.83"/>
    </edge>
    <edge id=":1664172679_1" function="internal">
        <lane id=":1664172679_1_0" index="0" disallow="tram rail_urban rail rail_electric rail_fast ship container cable_car subway aircraft wheelchair scooter drone" speed="12.08" length="7.83" width="3.00" shape="2703.55,2097.39 2705.69,2098.22 2707.05,2099.06 2708.17,2100.23 2709.61,2102.05"/>
    </edge>
    <edge id=":1664172686_0" function="internal">
        <lane id=":1664172686_0_0" index="0" disallow="tram rail_urban rail rail_electric rail_fast ship container cable_car subway aircraft wheelchair scooter drone" speed="8.33" length="6.61" shape="2678.23,2165.43 2676.80,2166.73 2676.06,2167.88 2675.34,2169.05 2673.94,2170.39"/>
    </edge>
    <edge id=":1664172686_1" function="internal">
        <lane id=":1664172686_1_0" index="0" disallow="tram rail_urban rail rail_electric rail_fast ship container cable_car subway aircraft wheelchair scooter drone" speed="8.33" length="5.95" shape="2672.02,2167.82 2673.34,2166.70 2674.06,2165.73 2674.56,2164.59 2675.25,2162.96"/>
    </edge>
    <edge id=":1732884293_0" function="internal">
        <lane id=":1732884293_0_0" index="0" disallow="pedestrian tram rail_urban rail rail_electric rail_fast ship container cable_car subway aircraft wheelchair scooter drone" speed="12.09" length="4.68" width="3.00" shape="2607.94,2129.22 2607.14,2128.09 2606.52,2127.35 2605.78,2126.75 2604.59,2126.05"/>
    </edge>
    <edge id=":1732884293_1" function="internal">
        <lane id=":1732884293_1_0" index="0" disallow="pedestrian tram rail_urban rail rail_electric rail_fast ship container cable_car subway aircraft wheelchair scooter drone" speed="8.93" length="3.83" shape="2610.55,2127.36 2609.91,2126.43 2609.55,2125.73 2609.37,2124.96 2609.26,2123.84"/>
    </edge>
    <edge id=":1732884306_0" function="internal">
        <lane id=":1732884306_0_0" index="0" disallow="tram rail_urban rail rail_electric rail_fast ship container cable_car subway aircraft wheelchair scooter drone" speed="13.89" length="6.68" shape="2376.49,1946.52 2377.71,1945.04 2378.80,1944.25 2379.88,1943.44 2381.06,1941.94"/>
        <lane id=":1732884306_0_1" index="1" disallow="tram rail_urban rail rail_electric rail_fast ship container cable_car subway aircraft wheelchair scooter drone" speed="13.89" length="6.68" shape="2379.18,1948.25 2380.41,1946.76 2381.51,1945.95 2382.60,1945.12 2383.79,1943.61"/>
        <lane id=":1732884306_0_2" index="2" disallow="tram rail_urban rail rail_electric rail_fast ship container cable_car subway aircraft wheelchair scooter drone" speed="13.89" length="6.68" shape="2381.87,1949.99 2383.11,1948.47 2384.23,1947.65 2385.32,1946.81 2386.53,1945.27"/>
        <lane id=":1732884306_0_3" index="3" disallow="tram rail_urban rail rail_electric rail_fast ship container cable_car subway aircraft wheelchair scooter drone" speed="13.89" length="6.68" shape="2384.56,1951.72 2385.82,1950.19 2386.94,1949.35 2388.04,1948.50 2389.26,1946.94"/>
        <lane id=":1732884306_0_4" index="4" disallow="tram rail_urban rail rail_electric rail_fast ship container cable_car subway aircraft wheelchair scooter drone" speed="13.89" length="6.68" shape="2387.25,1953.46 2388.52,1951.90 2389.65,1951.05 2390.76,1950.18 2391.99,1948.61"/>
    </edge>
    <edge id=":1732884306_5" function="internal">
        <lane id=":1732884306_5_0" index="0" disallow="pedestrian tram rail_urban rail rail_electric rail_fast ship container cable_car subway aircraft wheelchair scooter drone" speed="6.95" length="5.36" shape="2389.94,1955.19 2390.79,1954.14 2391.82,1953.36 2393.03,1952.86 2394.42,1952.63"/>
    </edge>
    <edge id=":1732884329_0" function="internal">
        <lane id=":1732884329_0_0" index="0" disallow="tram rail_urban rail rail_electric rail_fast ship container cable_car subway aircraft wheelchair scooter drone" speed="13.89" length="8.17" shape="1957.08,1595.19 1959.42,1595.79 1961.13,1595.85 1962.82,1595.92 1965.15,1596.58"/>
        <lane id=":1732884329_0_1" index="1" disallow="tram rail_urban rail rail_electric rail_fast ship container cable_car subway aircraft wheelchair scooter drone" speed="13.89" length="8.17" shape="1955.97,1598.19 1958.29,1598.78 1959.98,1598.83 1961.66,1598.90 1963.96,1599.55"/>
        <lane id=":1732884329_0_2" index="2" disallow="tram rail_urban rail rail_electric rail_fast ship container cable_car subway aircraft wheelchair scooter drone" speed="13.89" length="8.17" shape="1955.97,1598.19 1958.10,1599.25 1959.38,1600.32 1960.66,1601.41 1962.77,1602.52"/>
    </edge>
    <edge id=":1841762981_0" function="internal">
        <lane id=":1841762981_0_0" index="0" disallow="tram rail_urban rail rail_electric rail_fast ship container cable_car subway aircraft wheelchair scooter drone" speed="13.89" length="0.30" shape="1851.06,2574.41 1851.26,2574.19"/>
        <lane id=":1841762981_0_1" index="1" disallow="tram rail_urban rail rail_electric rail_fast ship container cable_car subway aircraft wheelchair scooter drone" speed="13.89" length="0.30" shape="1853.48,2576.50 1853.68,2576.28"/>
        <lane id=":1841762981_0_2" index="2" disallow="tram rail_urban rail rail_electric rail_fast ship container cable_car subway aircraft wheelchair scooter drone" speed="13.89" length="0.30" shape="1855.91,2578.59 1856.10,2578.37"/>
    </edge>
    <edge id=":1941234919_0" function="internal">
        <lane id=":1941234919_0_0" index="0" disallow="tram rail_urban rail rail_electric rail_fast ship container cable_car subway aircraft wheelchair scooter drone" speed="13.89" length="0.28" shape="2158.71,2278.65 2158.56,2278.81"/>
        <lane id=":1941234919_0_1" index="1" disallow="tram rail_urban rail rail_electric rail_fast ship container cable_car subway aircraft wheelchair scooter drone" speed="13.89" length="0.28" shape="2156.41,2276.43 2156.22,2276.63"/>
        <lane id=":1941234919_0_2" index="2" disallow="tram rail_urban rail rail_electric rail_fast ship container cable_car subway aircraft wheelchair scooter drone" speed="13.89" length="0.28" shape="2154.11,2274.21 2153.87,2274.46"/>
    </edge>
    <edge id=":1985727702_0" function="internal">
        <lane id=":1985727702_0_0" index="0" disallow="pedestrian tram rail_urban rail rail_electric rail_fast ship container cable_car subway aircraft wheelchair scooter drone" speed="13.89" length="11.35" shape="2424.57,1867.23 2426.62,1864.62 2428.73,1863.41 2430.91,1862.25 2433.17,1859.77"/>
        <lane id=":1985727702_0_1" index="1" disallow="pedestrian tram rail_urban rail rail_electric rail_fast ship container cable_car subway aircraft wheelchair scooter drone" speed="13.89" length="11.35" shape="2427.38,1868.75 2429.40,1866.20 2431.48,1865.04 2433.64,1863.92 2435.87,1861.50"/>
        <lane id=":1985727702_0_2" index="2" disallow="pedestrian tram rail_urban rail rail_electric rail_fast ship container cable_car subway aircraft wheelchair scooter drone" speed="13.89" length="11.35" shape="2430.20,1870.27 2432.18,1867.78 2434.24,1866.67 2436.37,1865.59 2438.56,1863.23"/>
    </edge>
    <edge id=":1985727702_3" function="internal">
        <lane id=":1985727702_3_0" index="0" disallow="pedestrian tram rail_urban rail rail_electric rail_fast ship container cable_car subway aircraft wheelchair scooter drone" speed="9.32" length="9.67" shape="2433.02,1871.78 2434.28,1870.07 2436.04,1868.70 2438.29,1867.67 2441.04,1866.98"/>
        <lane id=":1985727702_3_1" index="1" disallow="pedestrian tram rail_urban rail rail_electric rail_fast ship container cable_car subway aircraft wheelchair scooter drone" speed="7.89" length="6.77" shape="2435.84,1873.30 2436.68,1872.20 2437.92,1871.31 2439.55,1870.62 2441.58,1870.13"/>
    </edge>
    <edge id=":1985727749_0" function="internal">
        <lane id=":1985727749_0_0" index="0" disallow="tram rail_urban rail rail_electric rail_fast ship container cable_car subway aircraft wheelchair scooter drone" speed="6.77" length="8.28" shape="2592.88,2058.63 2591.64,2060.63 2591.17,2062.55 2591.46,2064.41 2592.51,2066.19"/>
    </edge>
    <edge id=":1985727749_1" function="internal">
        <lane id=":1985727749_1_0" index="0" disallow="tram rail_urban rail rail_electric rail_fast ship container cable_car subway aircraft wheelchair scooter drone" speed="13.89" length="9.72" shape="2586.31,2058.70 2592.51,2066.19"/>
    </edge>
    <edge id=":1985727750_0" function="internal">
        <lane id=":1985727750_0_0" index="0" disallow="tram rail_urban rail rail_electric rail_fast ship container cable_car subway aircraft wheelchair scooter drone" speed="8.33" length="10.42" shape="2659.65,2089.01 2658.03,2086.46 2656.69,2084.75 2655.23,2083.13 2653.24,2080.82"/>
    </edge>
    <edge id=":1985727750_1" function="internal">
        <lane id=":1985727750_1_0" index="0" disallow="tram rail_urban rail rail_electric rail_fast ship container cable_car subway aircraft wheelchair scooter drone" speed="8.33" length="4.75" shape="2655.71,2078.79 2656.64,2079.83 2657.39,2080.43 2658.27,2080.86 2659.57,2081.42"/>
    </edge>
    <edge id=":1985727762_0" function="internal">
        <lane id=":1985727762_0_0" index="0" disallow="tram rail_urban rail rail_electric rail_fast ship container cable_car subway aircraft wheelchair scooter drone" speed="7.64" length="6.73" shape="2701.85,2130.25 2700.54,2130.88 2699.40,2131.91 2698.43,2133.34 2697.63,2135.18"/>
    </edge>
    <edge id=":1985727762_1" function="internal">
        <lane id=":1985727762_1_0" index="0" disallow="tram rail_urban rail rail_electric rail_fast ship container cable_car subway aircraft wheelchair scooter drone" speed="13.89" length="7.36" width="3.00" shape="2701.85,2130.25 2699.77,2130.93 2698.31,2131.34 2696.82,2131.46 2694.68,2131.21"/>
    </edge>
    <edge id=":2069674078_0" function="internal">
        <lane id=":2069674078_0_0" index="0" disallow="pedestrian bicycle tram rail_urban rail rail_electric rail_fast ship container cable_car subway aircraft wheelchair scooter drone" speed="8.33" length="4.03" shape="2608.68,2116.35 2608.55,2115.18 2608.34,2114.38 2607.92,2113.66 2607.19,2112.72"/>
    </edge>
    <edge id=":2069674078_1" function="internal">
        <lane id=":2069674078_1_0" index="0" disallow="pedestrian bicycle tram rail_urban rail rail_electric rail_fast ship container cable_car subway aircraft wheelchair scooter drone" speed="8.03" length="3.95" shape="2609.68,2110.71 2610.43,2111.59 2611.04,2112.12 2611.78,2112.47 2612.89,2112.80"/>
    </edge>
    <edge id=":2445871025_0" function="internal">
        <lane id=":2445871025_0_0" index="0" disallow="tram rail_urban rail rail_electric rail_fast ship container cable_car subway aircraft wheelchair scooter drone" speed="13.89" length="2.93" shape="2149.36,1692.82 2146.75,1691.49"/>
    </edge>
    <edge id=":2445871025_1" function="internal">
        <lane id=":2445871025_1_0" index="0" disallow="pedestrian tram rail_urban rail rail_electric rail_fast ship container cable_car subway aircraft wheelchair scooter drone" speed="13.89" length="3.79" shape="2151.57,1689.39 2150.45,1689.28 2149.69,1689.14 2148.95,1688.90 2147.90,1688.50"/>
    </edge>
    <edge id=":2445871035_0" function="internal">
        <lane id=":2445871035_0_0" index="0" disallow="tram rail_urban rail rail_electric rail_fast ship container cable_car subway aircraft wheelchair scooter drone" speed="13.89" length="6.18" shape="2147.29,1670.27 2148.87,1670.84 2150.00,1671.08 2151.17,1671.16 2152.86,1671.27"/>
        <lane id=":2445871035_0_1" index="1" disallow="tram rail_urban rail rail_electric rail_fast ship container cable_car subway aircraft wheelchair scooter drone" speed="13.89" length="6.18" shape="2146.08,1673.23 2147.93,1673.91 2149.25,1674.21 2150.61,1674.32 2152.59,1674.45"/>
    </edge>
    <edge id=":2445871035_2" function="internal">
        <lane id=":2445871035_2_0" index="0" disallow="pedestrian tram rail_urban rail rail_electric rail_fast ship container cable_car subway aircraft wheelchair scooter drone" speed="13.89" length="10.62" shape="2144.88,1676.20 2147.88,1677.30 2150.02,1678.01 2151.98,1678.91 2154.48,1680.58"/>
    </edge>
    <edge id=":2447798318_0" function="internal">
        <lane id=":2447798318_0_0" index="0" disallow="tram rail_urban rail rail_electric rail_fast ship container cable_car subway aircraft wheelchair scooter drone" speed="13.89" length="0.29" shape="1803.85,2690.74 1803.63,2691.00"/>
        <lane id=":2447798318_0_1" index="1" disallow="tram rail_urban rail rail_electric rail_fast ship container cable_car subway aircraft wheelchair scooter drone" speed="13.89" length="0.29" shape="1801.35,2688.74 1801.17,2688.96"/>
        <lane id=":2447798318_0_2" index="2" disallow="tram rail_urban rail rail_electric rail_fast ship container cable_car subway aircraft wheelchair scooter drone" speed="13.89" length="0.29" shape="1798.85,2686.74 1798.70,2686.92"/>
    </edge>
    <edge id=":2447888136_0" function="internal">
        <lane id=":2447888136_0_0" index="0" disallow="tram rail_urban rail rail_electric rail_fast ship container cable_car subway aircraft wheelchair scooter drone" speed="13.89" length="8.21" shape="2692.32,1754.48 2690.56,1756.11 2689.62,1757.50 2688.69,1758.90 2686.95,1760.55"/>
        <lane id=":2447888136_0_1" index="1" disallow="tram rail_urban rail rail_electric rail_fast ship container cable_car subway aircraft wheelchair scooter drone" speed="13.89" length="8.21" shape="2690.40,1751.92 2688.64,1753.55 2687.69,1754.95 2686.75,1756.36 2685.00,1758.01"/>
        <lane id=":2447888136_0_2" index="2" disallow="tram rail_urban rail rail_electric rail_fast ship container cable_car subway aircraft wheelchair scooter drone" speed="13.89" length="8.21" shape="2688.49,1749.36 2686.71,1750.99 2685.76,1752.40 2684.81,1753.81 2683.05,1755.47"/>
        <lane id=":2447888136_0_3" index="3" disallow="tram rail_urban rail rail_electric rail_fast ship container cable_car subway aircraft wheelchair scooter drone" speed="13.89" length="8.21" shape="2688.49,1749.36 2686.41,1750.60 2684.79,1751.13 2683.17,1751.66 2681.11,1752.93"/>
    </edge>
    <edge id=":2447888138_0" function="internal">
        <lane id=":2447888138_0_0" index="0" disallow="tram rail_urban rail rail_electric rail_fast ship container cable_car subway aircraft wheelchair scooter drone" speed="13.89" length="8.65" shape="2654.57,1785.35 2652.90,1787.26 2652.33,1789.08 2651.75,1790.89 2650.06,1792.77"/>
        <lane id=":2447888138_0_1" index="1" disallow="tram rail_urban rail rail_electric rail_fast ship container cable_car subway aircraft wheelchair scooter drone" speed="13.89" length="8.65" shape="2652.62,1782.81 2650.96,1784.71 2650.40,1786.53 2649.82,1788.33 2648.14,1790.21"/>
        <lane id=":2447888138_0_2" index="2" disallow="tram rail_urban rail rail_electric rail_fast ship container cable_car subway aircraft wheelchair scooter drone" speed="13.89" length="8.65" shape="2650.68,1780.27 2649.03,1782.16 2648.47,1783.97 2647.90,1785.77 2646.23,1787.64"/>
        <lane id=":2447888138_0_3" index="3" disallow="tram rail_urban rail rail_electric rail_fast ship container cable_car subway aircraft wheelchair scooter drone" speed="13.89" length="8.65" shape="2648.73,1777.73 2647.09,1779.62 2646.54,1781.42 2645.98,1783.21 2644.32,1785.07"/>
        <lane id=":2447888138_0_4" index="4" disallow="tram rail_urban rail rail_electric rail_fast ship container cable_car subway aircraft wheelchair scooter drone" speed="13.89" length="8.65" shape="2648.73,1777.73 2642.41,1782.51"/>
        <lane id=":2447888138_0_5" index="5" disallow="tram rail_urban rail rail_electric rail_fast ship container cable_car subway aircraft wheelchair scooter drone" speed="13.89" length="8.65" shape="2648.73,1777.73 2646.50,1778.81 2644.63,1778.85 2642.75,1778.89 2640.50,1779.94"/>
    </edge>
    <edge id=":2447939519_0" function="internal">
        <lane id=":2447939519_0_0" index="0" disallow="tram rail_urban rail rail_electric rail_fast ship container cable_car subway aircraft wheelchair scooter drone" speed="10.22" length="6.96" shape="2630.38,2048.96 2629.13,2047.41 2627.96,2046.65 2626.54,2046.21 2624.55,2045.60"/>
    </edge>
    <edge id=":2447939519_1" function="internal">
        <lane id=":2447939519_1_0" index="0" disallow="tram rail_urban rail rail_electric rail_fast ship container cable_car subway aircraft wheelchair scooter drone" speed="8.33" length="6.70" shape="2630.17,2041.16 2630.97,2042.98 2631.46,2044.26 2632.02,2045.50 2633.05,2047.19"/>
    </edge>
    <edge id=":2482696987_0" function="internal">
        <lane id=":2482696987_0_0" index="0" disallow="pedestrian tram rail_urban rail rail_electric rail_fast ship container cable_car subway aircraft wheelchair scooter drone" speed="13.89" length="0.29" shape="2687.40,1622.99 2687.65,1622.77"/>
        <lane id=":2482696987_0_1" index="1" disallow="pedestrian tram rail_urban rail rail_electric rail_fast ship container cable_car subway aircraft wheelchair scooter drone" speed="13.89" length="0.29" shape="2689.54,1625.37 2689.76,1625.17"/>
        <lane id=":2482696987_0_2" index="2" disallow="pedestrian tram rail_urban rail rail_electric rail_fast ship container cable_car subway aircraft wheelchair scooter drone" speed="13.89" length="0.29" shape="2691.68,1627.75 2691.87,1627.58"/>
    </edge>
    <edge id=":2616169375_0" function="internal">
        <lane id=":2616169375_0_0" index="0" disallow="pedestrian bicycle tram rail_urban rail rail_electric rail_fast ship container cable_car subway aircraft wheelchair scooter drone" speed="13.89" length="3.55" shape="2164.35,1690.96 2163.38,1690.57 2162.69,1690.35 2161.98,1690.24 2160.93,1690.14"/>
    </edge>
    <edge id=":2616169375_1" function="internal">
        <lane id=":2616169375_1_0" index="0" disallow="pedestrian bicycle tram rail_urban rail rail_electric rail_fast ship container cable_car subway aircraft wheelchair scooter drone" speed="13.89" length="4.70" shape="2161.44,1685.83 2162.57,1686.64 2163.40,1687.11 2164.29,1687.49 2165.58,1688.01"/>
    </edge>
    <edge id=":26378752_0" function="internal">
        <lane id=":26378752_0_0" index="0" disallow="tram rail_urban rail rail_electric rail_fast ship container cable_car subway aircraft wheelchair scooter drone" speed="13.89" length="0.29" shape="2848.25,1604.37 2848.13,1604.60"/>
        <lane id=":26378752_0_1" index="1" disallow="tram rail_urban rail rail_electric rail_fast ship container cable_car subway aircraft wheelchair scooter drone" speed="13.89" length="0.29" shape="2845.46,1602.81 2845.32,1603.07"/>
        <lane id=":26378752_0_2" index="2" disallow="tram rail_urban rail rail_electric rail_fast ship container cable_car subway aircraft wheelchair scooter drone" speed="13.89" length="0.29" shape="2842.67,1601.25 2842.51,1601.54"/>
    </edge>
    <edge id=":280272723_0" function="internal">