<?xml version="1.0" encoding="UTF-8"?>

<!-- generated on 2026-03-15T10:47:43.575942+01:00 by Eclipse SUMO netedit 1.26.0
-->

<routes xmlns:xsi="http://www.w3.org/2001/XMLSchema-instance" xsi:noNamespaceSchemaLocation="http://sumo.dlr.de/xsd/routes_file.xsd">
    <!-- VTypes -->
    <vType id="bus" length="12.00" maxSpeed="22.22" vClass="bus" emissionClass="HBEFA3/HDV_D_EU4" guiShape="bus" color="orange" accel="1.2" decel="4.0" sigma="0.4"/>
    <!-- Vehicles, persons and containers (sorted by depart) -->
    <vehicle id="bus_0" type="bus" depart="0.00">
        <route edges="29114711#0.184 1362017843 1362017842.95 313992354#0 313992354#1 1362017841 313992351#0 287311357#0 27348585#0 61316915 187938712 287311363#0 1348067247 1348067246#0 287311364 236825277 -1316855122#3"/>
    </vehicle>
    <vehicle id="bus_1" type="bus" depart="15.00">
        <route edges="200568455#0 227216231#0 236818215 236818214 161297931#0 432309716#0 287956206#2 1271126935 169400610#0 771467599#0 224821292#0 1147624737#0 1147624737#1"/>
    </vehicle>
    <vehicle id="bus_2" type="bus" depart="30.00">
        <route edges="61293002 61293002.258 236825276 291941452 942711943 1347887395 255904385#0 61316958 236818221#0 224821293#2 1232799370 1232799371#2 1232799371#4 277203712 236809165"/>
    </vehicle>
    <vehicle id="bus_3" type="bus" depart="45.00">
        <route edges="1362017841 153776638#0 153776638#0.87 224821292#0 1147624737#0 1147624737#1"/>
    </vehicle>
    <vehicle id="bus_4" type="bus" depart="60.00">
        <route edges="961539471 961539472 236811148 236811149#0 1271126935 187938713#0 287311357#0 27348585#0 61316915 187938712 287311363#0 1348067247 1348067246#0 287311364 236825277 -1316855122#3"/>
    </vehicle>
    <vehicle id="bus_6" type="bus" depart="90.00">
        <route edges="236811148 236811149#0 1271126935 169400610#0 771467599#0 224821292#0 1147624737#0 1147624737#1"/>
    </vehicle>
    <vehicle id="bus_7" type="bus" depart="105.00">
        <route edges="961539471 961539472 236811148 236811149#0 1271126935 187938713#0 287311357#0 27348585#0 61316915 287956205 25126523 1362019277 1362020490"/>
    </vehicle>
    <vehicle id="bus_9" type="bus" depart="135.00">
        <route edges="277203721 277203724 200568452#0"/>
    </vehicle>
    <vehicle id="bus_10" type="bus" depart="150.00">
        <route edges="961539471 961539472 236811148 236811149#0 1271126935 169400610#0 771467599#0 224821292#0"/>
    </vehicle>
    <vehicle id="bus_11" type="bus" depart="165.00">
        <route edges="200568455#0 227216231#0 236818215 236818214 187938710#0 169400609#0 224821293#0 224821293#2 1232799370 1232799371#2 1232799371#4"/>
    </vehicle>
    <vehicle id="bus_12" type="bus" depart="180.00">
        <route edges="161297934 1362019276 29092803 942711932#0 61316958 236818220#0 287956206#2 1271126935 169400610#0 771467599#0 224821292#0 1147624737#0 1147624737#1"/>
    </vehicle>
    <vehicle id="bus_13" type="bus" depart="195.00">
        <route edges="161297934 1362019276 29092803 942711932#0 61316958 236818220#0 287956206#2 1271126935 169400610#0 771467599#0 224821292#0 1147624737#0 1147624737#1"/>
    </vehicle>
    <vehicle id="bus_14" type="bus" depart="210.00">
        <route edges="29114711#0.184 1362017843 1362017842.95 196662201 942711933 196664103 1362019277 1362020490"/>
    </vehicle>
    <vehicle id="bus_15" type="bus" depart="225.00">
        <route edges="27348585#0 61316915 187938712 287311363#0 1348067247 1348067246#0 287311364 27476746 291941452 942711943 1347887395 255904385#0 61316958 236818220#0 287956206#2 1271126935 169400610#0 771467599#0 224821292#0 1147624737#0 1147624737#1"/>
    </vehicle>
    <vehicle id="bus_16" type="bus" depart="240.00">
        <route edges="200568455#0 227216231#0 236818215 236818214 161297931#0 432309716#0 287956206#2 1451328237#0 E1 1323631883 430532793.85 430532793.85.34 430532793.85.34.10 430532795"/>
    </vehicle>
    <vehicle id="bus_17" type="bus" depart="255.00">
        <route edges="200568455#0 227216231#0 236818215 236818214 187938710#0 169400609#0 224821293#0 224821293#2 1232799370 1232799371#2 1232799371#4 277203712 236809165"/>
    </vehicle>
    <vehicle id="bus_18" type="bus" depart="270.00">
        <route edges="187938713#0 287311357#0 27348585#0 61316915 287956205 25126523 1362019277 1362020490"/>
    </vehicle>
    <vehicle id="bus_20" type="bus" depart="300.00">
        <route edges="29114711#0.184 1362017843 1362017842.95 313992354#0 313992354#1 1362017841 313992351#0 287311357#0 169400609#0 224821293#0 224821293#2 1232799370 1232799371#2 1232799371#4 277203712 236809165"/>
    </vehicle>
    <vehicle id="bus_22" type="bus" depart="330.00">
        <route edges="200568455#0 227216231#0 236818215 236818214 187938710#0 27348585#0 61316915 187938712 287311363#0 1348067247 1348067246#0 287311364 236825277 -1316855122#3"/>
    </vehicle>
    <vehicle id="bus_23" type="bus" depart="345.00">
        <route edges="200568455#0 227216231#0 236818215 236818214 161297931#0 432309716#0 287956206#2 1271126935 169400610#0 771467599#0 224821292#0 1147624737#0 1147624737#1"/>
    </vehicle>
    <vehicle id="bus_24" type="bus" depart="360.00">
        <route edges="200568455#0 227216231#0 236818215 236818214 161297931#0 432309716#0 287956206#2 1451328237#0 E1 1323631883 430532793.85 430532793.85.34 430532793.85.34.10 430532795"/>
    </vehicle>
    <vehicle id="bus_25" type="bus" depart="375.00">
        <route edges="961539471 961539472 236811148 236811149#0 1271126935 187938713#0 287311357#0 27348585#0 61316915 287956205 25126523 1362019277"/>
    </vehicle>
    <vehicle id="bus_26" type="bus" depart="390.00">
        <route edges="200568455#0 227216231#0 236818215 236818214 161297931#0 432309716#0 287956206#2 1271126935 169400610#0 771467599#0 224821292#0 1147624737#0 1147624737#1"/>
    </vehicle>
    <vehicle id="bus_27" type="bus" depart="405.00">
        <route edges="29114711#0.184 1362017843 1362017842.95 313992354#0 313992354#1 1362017841 153776638#0 153776638#0.87 224821292#0 1147624737#0 1147624737#1"/>
    </vehicle>
    <vehicle id="bus_28" type="bus" depart="420.00">
        <route edges="29114711#0.184 1362017843 1362017842.95 313992354#0 313992354#1 1362017841 313992351#0 287311357#0 432309716#0 287956206#2 1451328237#0 E1 1323631883 430532793.85 430532793.85.34 430532793.85.34.10 430532795"/>
    </vehicle>
    <vehicle id="bus_29" type="bus" depart="435.00">
        <route edges="161297934 1362019276 29092803 432309717 -27476683 942711942 1232964862 1232964863 287311364 236825277 -1316855122#3"/>
    </vehicle>
    <vehicle id="bus_30" type="bus" depart="450.00">
        <route edges="961539471 961539472 236811148 236811149#0 1271126935 187938713#0 287311357#0 27348585#0 61316915 287956205 25126523 1362019277 1362020490"/>
    </vehicle>
    <vehicle id="bus_31" type="bus" depart="465.00">
        <route edges="161297934 1362019276 29092803 942711932#0 61316958 236818220#0 287956206#2 1271126935 187938713#0 287311357#0 27348585#0 61316915 287956205 25126523 1362019277 1362020490"/>
    </vehicle>
    <vehicle id="bus_32" type="bus" depart="480.00">
        <route edges="961539471 961539472 236811148 236811149#0 1451328237#0 E1 1323631883 430532793.85 430532793.85.34 430532793.85.34.10"/>
    </vehicle>
    <vehicle id="bus_33" type="bus" depart="495.00">
        <route edges="1232799371#2 1232799371#4 277203712 236809165"/>
    </vehicle>
    <vehicle id="bus_34" type="bus" depart="510.00">
        <route edges="200568455#0 227216231#0 236818215 236818214 187938710#0 169400609#0 224821293#0 224821293#2 1232799370 1232799371#2 1232799371#4 277203712 236809165"/>
    </vehicle>
    <vehicle id="bus_35" type="bus" depart="525.00">
        <route edges="161297934 1362019276 29092803 942711932#0 61316958 236818220#0 287956206#2 1271126935 187938713#0 287311357#0 169400609#0"/>
    </vehicle>
    <vehicle id="bus_36" type="bus" depart="540.00">
        <route edges="961539471 961539472 236811148 236811149#0 1271126935 169400610#0 771467599#0 224821292#0 1147624737#0 1147624737#1"/>
    </vehicle>
    <vehicle id="bus_37" type="bus" depart="555.00">
        <route edges="961539471 961539472 236811148 236811149#0 1451328237#0 E1 1323631883 430532793.85 430532793.85.34 430532793.85.34.10 430532795"/>
    </vehicle>
    <vehicle id="bus_38" type="bus" depart="570.00">
        <route edges="200568455#0 227216231#0 236818215 236818214 187938710#0 169400609#0 224821293#0 224821293#2 1232799370 1232799371#2 1232799371#4 277203712 236809165"/>
    </vehicle>
    <vehicle id="bus_39" type="bus" depart="585.00">
        <route edges="29114711#0.184 1362017843 1362017842.95 313992354#0 313992354#1 1362017841 153776638#0 153776638#0.87 224821292#0 1147624737#0 1147624737#1"/>
    </vehicle>
    <vehicle id="bus_40" type="bus" depart="600.00">
        <route edges="-1348067248 61295588#0 25126523 1362019277 1362020490"/>
    </vehicle>
    <vehicle id="bus_41" type="bus" depart="615.00">
        <route edges="1271126935 187938713#0 287311357#0 432309716#0 287956206#2 1451328237#0 E1 1323631883 430532793.85 430532793.85.34 430532793.85.34.10 430532795"/>
    </vehicle>
    <vehicle id="bus_43" type="bus" depart="645.00">
        <route edges="961539471 961539472 236811148 236811149#0 1451328237#0 E1 1323631883 430532793.85 430532793.85.34 430532793.85.34.10 430532795"/>
    </vehicle>
    <vehicle id="bus_44" type="bus" depart="660.00">
        <route edges="161297934 1362019276 29092803 942711932#0 61316958 236818221#0 224821293#2 1232799370 1232799371#2 1232799371#4 277203712 236809165"/>
    </vehicle>
    <vehicle id="bus_45" type="bus" depart="675.00">
        <route edges="61293002 61293002.258 236825276 291941452 942711943 1347887395 255904385#0 61316958 236818220#0 287956206#2 1271126935 169400610#0 771467599#0 224821292#0 1147624737#0 1147624737#1"/>
    </vehicle>
    <vehicle id="bus_46" type="bus" depart="690.00">
        <route edges="277203721 277203724 200568452#0"/>
    </vehicle>
    <vehicle id="bus_47" type="bus" depart="705.00">
        <route edges="200568455#0 227216231#0 236818215 236818214 161297931#0 432309716#0 287956206#2 1451328237#0 E1 1323631883 430532793.85 430532793.85.34 430532793.85.34.10 430532795"/>
    </vehicle>
    <vehicle id="bus_48" type="bus" depart="720.00">
        <route edges="287956206#2 1271126935 187938713#0 287311357#0 169400609#0 224821293#0 224821293#2 1232799370 1232799371#2 1232799371#4 277203712 236809165"/>
    </vehicle>
    <vehicle id="bus_50" type="bus" depart="750.00">
        <route edges="277203721 277203724 200568452#0"/>
    </vehicle>
    <vehicle id="bus_51" type="bus" depart="765.00">
        <route edges="161297934 1362019276 29092803 942711932#0 61316958 236818220#0 287956206#2 1271126935 169400610#0 771467599#0 224821292#0 1147624737#0 1147624737#1"/>
    </vehicle>
    <vehicle id="bus_52" type="bus" depart="780.00">
        <route edges="200568455#0 227216231#0 236818215 236818214 161297931#0 432309716#0 287956206#2 1271126935 169400610#0 771467599#0 224821292#0 1147624737#0 1147624737#1"/>
    </vehicle>
    <vehicle id="bus_53" type="bus" depart="795.00">
        <route edges="161297934 1362019276 29092803 942711932#0 61316958 236818221#0 224821293#2 1232799370 1232799371#2 1232799371#4 277203712 236809165"/>
    </vehicle>
    <vehicle id="bus_54" type="bus" depart="810.00">
        <route edges="200568455#0 227216231#0 236818215 236818214 161297931#0 432309716#0 287956206#2 1451328237#0 E1 1323631883 430532793.85 430532793.85.34 430532793.85.34.10 430532795"/>
    </vehicle>
    <vehicle id="bus_55" type="bus" depart="825.00">
        <route edges="200568455#0 227216231#0 236818215 236818214 187938710#0 169400609#0 224821293#0 224821293#2 1232799370 1232799371#2 1232799371#4 277203712 236809165"/>
    </vehicle>
    <vehicle id="bus_56" type="bus" depart="840.00">
        <route edges="200568455#0 227216231#0 236818215 236818214 161297931#0 432309716#0 287956206#2 1271126935 169400610#0 771467599#0 224821292#0 1147624737#0 1147624737#1"/>
    </vehicle>
    <vehicle id="bus_57" type="bus" depart="855.00">
        <route edges="961539471 961539472 236811148 236811149#0 1271126935 169400610#0 771467599#0 224821292#0 1147624737#0 1147624737#1"/>
    </vehicle>
    <vehicle id="bus_58" type="bus" depart="870.00">
        <route edges="277203721 277203724 200568452#0"/>
    </vehicle>
    <vehicle id="bus_59" type="bus" depart="885.00">
        <route edges="61293002 61293002.258 236825276 291941452 942711943 1347887395 255904385#0 61316958 236818221#0 224821293#2 1232799370 1232799371#2 1232799371#4 277203712 236809165"/>
    </vehicle>
    <vehicle id="bus_60" type="bus" depart="900.00">
        <route edges="961539471 961539472 236811148 236811149#0 1271126935 169400610#0 771467599#0 224821292#0 1147624737#0 1147624737#1"/>
    </vehicle>
    <vehicle id="bus_61" type="bus" depart="915.00">
        <route edges="200568455#0 227216231#0 236818215 236818214 161297931#0 432309716#0 287956206#2 1451328237#0 E1 1323631883 430532793.85 430532793.85.34 430532793.85.34.10 430532795"/>
    </vehicle>
    <vehicle id="bus_62" type="bus" depart="930.00">
        <route edges="29114711#0.184 1362017843 1362017842.95 313992354#0 313992354#1 1362017841 313992351#0 287311357#0 27348585#0 61316915 187938712 287311363#0 1348067247 1348067246#0 287311364 236825277 -1316855122#3"/>
    </vehicle>
    <vehicle id="bus_63" type="bus" depart="945.00">
        <route edges="961539471 961539472 236811148 236811149#0 1451328237#0 E1 1323631883 430532793.85 430532793.85.34 430532793.85.34.10 430532795"/>
    </vehicle>
    <vehicle id="bus_64" type="bus" depart="960.00">
        <route edges="961539471 961539472 236811148 236811149#0 1271126935 169400610#0 771467599#0 224821292#0 1147624737#0 1147624737#1"/>
    </vehicle>
    <vehicle id="bus_65" type="bus" depart="975.00">
        <route edges="200568455#0 227216231#0 236818215 236818214 187938710#0 169400609#0 224821293#0 224821293#2 1232799370 1232799371#2 1232799371#4 277203712 236809165"/>
    </vehicle>
    <vehicle id="bus_66" type="bus" depart="990.00">
        <route edges="961539471 961539472"/>
    </vehicle>
    <vehicle id="bus_67" type="bus" depart="1005.00">
        <route edges="29114711#0.184 1362017843 1362017842.95 313992354#0 313992354#1 1362017841 313992351#0 287311357#0 169400609#0 224821293#0 224821293#2 1232799370 1232799371#2 1232799371#4 277203712 236809165"/>
    </vehicle>
    <vehicle id="bus_68" type="bus" depart="1020.00">
        <route edges="29114711#0.184 1362017843 1362017842.95 313992354#0 313992354#1 1362017841 313992351#0 287311357#0 169400609#0 224821293#0 224821293#2 1232799370 1232799371#2 1232799371#4 277203712 236809165"/>
    </vehicle>
    <vehicle id="bus_69" type="bus" depart="1035.00">
        <route edges="161297934 1362019276 29092803 942711932#0 61316958 236818220#0 287956206#2 1271126935 169400610#0 771467599#0 224821292#0 1147624737#0 1147624737#1"/>
    </vehicle>
    <vehicle id="bus_70" type="bus" depart="1050.00">
        <route edges="29114711#0.184 1362017843 1362017842.95 313992354#0 313992354#1 1362017841 313992351#0 287311357#0 169400609#0 224821293#0 224821293#2 1232799370 1232799371#2 1232799371#4 277203712 236809165"/>
    </vehicle>
    <vehicle id="bus_71" type="bus" depart="1065.00">
        <route edges="200568455#0 227216231#0 236818215 236818214 161297931#0 432309716#0 287956206#2 1271126935 169400610#0 771467599#0 224821292#0 1147624737#0 1147624737#1"/>
    </vehicle>
    <vehicle id="bus_72" type="bus" depart="1080.00">
        <route edges="961539471 961539472 236811148 236811149#0 1271126935 169400610#0 771467599#0 224821292#0 1147624737#0 1147624737#1"/>
    </vehicle>
    <vehicle id="bus_73" type="bus" depart="1095.00">
        <route edges="29114711#0.184 1362017843 1362017842.95 313992354#0 313992354#1 1362017841 313992351#0 287311357#0 169400609#0 224821293#0"/>
    </vehicle>
    <vehicle id="bus_74" type="bus" depart="1110.00">
        <route edges="277203721 277203724 200568452#0"/>
    </vehicle>
    <vehicle id="bus_75" type="bus" depart="1125.00">
        <route edges="200568455#0 227216231#0 236818215 236818214 187938710#0 169400609#0 224821293#0 224821293#2 1232799370 1232799371#2 1232799371#4 277203712 236809165"/>
    </vehicle>
    <vehicle id="bus_76" type="bus" depart="1140.00">
        <route edges="200568455#0 227216231#0 236818215 236818214 187938710#0 27348585#0 61316915 287956205 25126523 1362019277 1362020490"/>
    </vehicle>
    <vehicle id="bus_77" type="bus" depart="1155.00">
        <route edges="200568455#0 227216231#0 236818215 236818214 187938710#0 169400609#0 224821293#0 224821293#2 1232799370 1232799371#2 1232799371#4 277203712 236809165"/>
    </vehicle>
    <vehicle id="bus_78" type="bus" depart="1170.00">
        <route edges="161297934 1362019276 29092803 942711932#0 61316958 236818220#0 287956206#2 1271126935 169400610#0 771467599#0 224821292#0 1147624737#0 1147624737#1"/>
    </vehicle>
    <vehicle id="bus_79" type="bus" depart="1185.00">
        <route edges="200568455#0 227216231#0 236818215 236818214 161297931#0 432309716#0 287956206#2 1451328237#0 E1 1323631883 430532793.85 430532793.85.34 430532793.85.34.10 430532795"/>
    </vehicle>
    <vehicle id="bus_80" type="bus" depart="1200.00">
        <route edges="961539471 961539472 236811148 236811149#0 1451328237#0 E1 1323631883 430532793.85 430532793.85.34 430532793.85.34.10 430532795"/>
    </vehicle>
    <vehicle id="bus_81" type="bus" depart="1215.00">
        <route edges="27348585#0 61316915 187938712 287311363#0 1348067247 1348067246#0 287311364 27476746 291941452 942711943 1347887395 255904385#0 61316958 236818220#0 287956206#2 1271126935 169400610#0 771467599#0 224821292#0 1147624737#0 1147624737#1"/>
    </vehicle>
    <vehicle id="bus_83" type="bus" depart="1245.00">
        <route edges="961539471 961539472 236811148 236811149#0 1271126935 187938713#0 287311357#0 27348585#0 61316915 187938712 287311363#0 1348067247 1348067246#0"/>
    </vehicle>
    <vehicle id="bus_84" type="bus" depart="1260.00">
        <route edges="407552210#0 430532795"/>
    </vehicle>
    <vehicle id="bus_85" type="bus" depart="1275.00">
        <route edges="161297934 1362019276 29092803 942711932#0 61316958 236818220#0 287956206#2 1271126935 169400610#0 771467599#0 224821292#0 1147624737#0"/>
    </vehicle>
    <vehicle id="bus_86" type="bus" depart="1290.00">
        <route edges="61293002 61293002.258 236825276 291941452 942711943 1347887395 255904385#0 61316958 236818220#0 287956206#2 1271126935 169400610#0 771467599#0 224821292#0 1147624737#0 1147624737#1"/>
    </vehicle>
    <vehicle id="bus_87" type="bus" depart="1305.00">
        <route edges="29114711#0.184 1362017843 1362017842.95 313992354#0 313992354#1 1362017841 153776638#0 153776638#0.87 224821292#0 1147624737#0 1147624737#1"/>
    </vehicle>
    <vehicle id="bus_88" type="bus" depart="1320.00">
        <route edges="29114711#0.184 1362017843 1362017842.95 313992354#0 313992354#1 1362017841 153776638#0 153776638#0.87 224821292#0 1147624737#0 1147624737#1"/>
    </vehicle>
    <vehicle id="bus_89" type="bus" depart="1335.00">
        <route edges="161297934 1362019276 29092803 942711932#0 61316958 236818220#0 287956206#2 1451328237#0 E1 1323631883 430532793.85 430532793.85.34 430532793.85.34.10 430532795"/>
    </vehicle>
    <vehicle id="bus_90" type="bus" depart="1350.00">
        <route edges="161297934 1362019276 29092803 942711932#0 61316958 236818220#0 287956206#2 1271126935 169400610#0 771467599#0 224821292#0 1147624737#0 1147624737#1"/>
    </vehicle>
    <vehicle id="bus_91" type="bus" depart="1365.00">
        <route edges="200568455#0 227216231#0 236818215 236818214 161297931#0 432309716#0 287956206#2 1451328237#0 E1 1323631883 430532793.85 430532793.85.34 430532793.85.34.10 430532795"/>
    </vehicle>
    <vehicle id="bus_92" type="bus" depart="1380.00">
        <route edges="961539471 961539472 236811148 236811149#0 1451328237#0 E1 1323631883 430532793.85 430532793.85.34 430532793.85.34.10"/>
    </vehicle>
    <vehicle id="bus_93" type="bus" depart="1395.00">
        <route edges="961539471 961539472 236811148 236811149#0 1271126935 169400610#0 771467599#0 224821292#0 1147624737#0 1147624737#1"/>
    </vehicle>
    <vehicle id="bus_94" type="bus" depart="1410.00">
        <route edges="942711932#0 61316958 236818220#0 287956206#2 1451328237#0 E1 1323631883 430532793.85 430532793.85.34 430532793.85.34.10 430532795"/>
    </vehicle>
    <vehicle id="bus_95" type="bus" depart="1425.00">
        <route edges="961539471 961539472 236811148 236811149#0 1271126935 187938713#0 287311357#0 27348585#0 61316915"/>
    </vehicle>
    <vehicle id="bus_96" type="bus" depart="1440.00">
        <route edges="961539471 961539472 236811148 236811149#0 1451328237#0 E1 1323631883 430532793.85 430532793.85.34 430532793.85.34.10 430532795"/>
    </vehicle>
    <vehicle id="bus_97" type="bus" depart="1455.00">
        <route edges="1348067246#0 287311364 27476746 291941452 942711943 1347887395 255904385#0 61316958 236818221#0 224821293#2 1232799370 1232799371#2 1232799371#4 277203712 236809165"/>
    </vehicle>
    <vehicle id="bus_98" type="bus" depart="1470.00">
        <route edges="961539471 961539472 236811148 236811149#0 1451328237#0 E1 1323631883 430532793.85 430532793.85.34 430532793.85.34.10 430532795"/>
    </vehicle>
    <vehicle id="bus_99" type="bus" depart="1485.00">
        <route edges="961539471 961539472 236811148 236811149#0 1271126935 169400610#0 771467599#0 224821292#0 1147624737#0 1147624737#1"/>
    </vehicle>
    <vehicle id="bus_100" type="bus" depart="1500.00">
        <route edges="961539471 961539472 236811148 236811149#0 1451328237#0 E1 1323631883 430532793.85 430532793.85.34 430532793.85.34.10"/>
    </vehicle>
    <vehicle id="bus_101" type="bus" depart="1515.00">
        <route edges="200568455#0 227216231#0 236818215 236818214 187938710#0 27348585#0 61316915 187938712 287311363#0 1348067247 1348067246#0 287311364 27476746 291941452 942711943 1347887395 255904385#0 61316958 236818220#0"/>
    </vehicle>
    <vehicle id="bus_102" type="bus" depart="1530.00">
        <route edges="961539471 961539472 236811148 236811149#0 1271126935 169400610#0 771467599#0 224821292#0 1147624737#0 1147624737#1"/>
    </vehicle>
    <vehicle id="bus_103" type="bus" depart="1545.00">
        <route edges="1347887395 255904385#0 61316958 236818220#0 287956206#2 1271126935 169400610#0 771467599#0 224821292#0 1147624737#0 1147624737#1"/>
    </vehicle>
    <vehicle id="bus_104" type="bus" depart="1560.00">
        <route edges="961539471 961539472 236811148 236811149#0 1271126935 169400610#0 771467599#0 224821292#0 1147624737#0 1147624737#1"/>
    </vehicle>
    <vehicle id="bus_105" type="bus" depart="1575.00">
        <route edges="29114711#0.184 1362017843 1362017842.95 196662201 942711933 196664103 1362019277 1362020490"/>
    </vehicle>
    <vehicle id="bus_106" type="bus" depart="1590.00">
        <route edges="961539471 961539472 236811148 236811149#0 1271126935 169400610#0 771467599#0 224821292#0 1147624737#0"/>
    </vehicle>
    <vehicle id="bus_107" type="bus" depart="1605.00">
        <route edges="961539471 961539472 236811148 236811149#0 1271126935 169400610#0 771467599#0 224821292#0 1147624737#0 1147624737#1"/>
    </vehicle>
    <vehicle id="bus_108" type="bus" depart="1620.00">
        <route edges="961539471 961539472 236811148 236811149#0 1271126935 169400610#0 771467599#0 224821292#0 1147624737#0 1147624737#1"/>
    </vehicle>
    <vehicle id="bus_109" type="bus" depart="1635.00">
        <route edges="161297934 1362019276 29092803 942711932#0 61316958 236818220#0 287956206#2 1271126935 187938713#0 287311357#0 169400609#0"/>
    </vehicle>
    <vehicle id="bus_110" type="bus" depart="1650.00">
        <route edges="61293002 61293002.258 236825276 291941452 291941449 1232964862 27476764#0 -1348067248 61295588#0 25126523 1362019277"/>
    </vehicle>
    <vehicle id="bus_111" type="bus" depart="1665.00">
        <route edges="277203721 277203724 200568452#0"/>
    </vehicle>
    <vehicle id="bus_112" type="bus" depart="1680.00">
        <route edges="200568455#0 227216231#0 236818215 236818214 187938710#0 169400609#0 224821293#0 224821293#2 1232799370 1232799371#2 1232799371#4 277203712 236809165"/>
    </vehicle>
    <vehicle id="bus_113" type="bus" depart="1695.00">
        <route edges="-27476683 942711942 1232964862 1232964863 287311364 27476746 291941452 942711943 1347887395 255904385#0 61316958 236818220#0 287956206#2 1451328237#0 E1 1323631883 430532793.85 430532793.85.34 430532793.85.34.10 430532795"/>
    </vehicle>
    <vehicle id="bus_114" type="bus" depart="1710.00">
        <route edges="61293002 61293002.258 236825276 291941452 942711943 1347887395 255904385#0 61316958 236818221#0 224821293#2 1232799370 1232799371#2 1232799371#4 277203712 236809165"/>
    </vehicle>
    <vehicle id="bus_115" type="bus" depart="1725.00">
        <route edges="61293002 61293002.258 236825276 291941452 942711943 1347887395 255904385#0 61316958 236818220#0 287956206#2 1271126935 187938713#0 287311357#0 27348585#0 61316915 187938712 287311363#0 1348067247"/>
    </vehicle>
    <vehicle id="bus_116" type="bus" depart="1740.00">
        <route edges="200568455#0 227216231#0 236818215 236818214 187938710#0 27348585#0 61316915 287956205 25126523 1362019277 1362020490"/>
    </vehicle>
    <vehicle id="bus_117" type="bus" depart="1755.00">
        <route edges="161297934 1362019276 29092803 942711932#0 61316958 236818220#0 287956206#2 1271126935 187938713#0 287311357#0 27348585#0 61316915 287956205 25126523 1362019277 1362020490"/>
    </vehicle>
    <vehicle id="bus_119" type="bus" depart="1785.00">
        <route edges="277203721 277203724 200568452#0"/>
    </vehicle>
    <vehicle id="bus_120" type="bus" depart="1800.00">
        <route edges="961539471 961539472 236811148 236811149#0 1271126935 169400610#0 771467599#0 224821292#0 1147624737#0 1147624737#1"/>
    </vehicle>
    <vehicle id="bus_121" type="bus" depart="1815.00">
        <route edges="29114711#0.184 1362017843 1362017842.95 196662201 942711933 196664103 1362019277 1362020490"/>
    </vehicle>
    <vehicle id="bus_123" type="bus" depart="1845.00">
        <route edges="200568455#0 227216231#0 236818215 236818214 187938710#0 27348585#0 61316915 187938712 287311363#0 1348067247 1348067246#0 287311364 236825277 -1316855122#3"/>
    </vehicle>
    <vehicle id="bus_124" type="bus" depart="1860.00">
        <route edges="200568455#0 227216231#0 236818215 236818214 187938710#0 169400609#0 224821293#0 224821293#2 1232799370 1232799371#2 1232799371#4 277203712 236809165"/>
    </vehicle>
    <vehicle id="bus_125" type="bus" depart="1875.00">
        <route edges="61293002 61293002.258 236825276 291941452 942711943 1347887395 255904385#0 61316958 236818221#0 224821293#2 1232799370 1232799371#2 1232799371#4 277203712 236809165"/>
    </vehicle>
    <vehicle id="bus_126" type="bus" depart="1890.00">
        <route edges="161297934 1362019276 29092803 942711932#0 61316958 236818220#0 287956206#2 1451328237#0"/>
    </vehicle>
    <vehicle id="bus_127" type="bus" depart="1905.00">
        <route edges="200568455#0 227216231#0 236818215 236818214 161297931#0 432309716#0 287956206#2 1451328237#0 E1 1323631883 430532793.85 430532793.85.34 430532793.85.34.10 430532795"/>
    </vehicle>
    <vehicle id="bus_128" type="bus" depart="1920.00">
        <route edges="29114711#0.184 1362017843 1362017842.95 313992354#0 313992354#1 1362017841 313992351#0 287311357#0 432309716#0 287956206#2 1451328237#0 E1 1323631883 430532793.85 430532793.85.34 430532793.85.34.10 430532795"/>
    </vehicle>
    <vehicle id="bus_130" type="bus" depart="1950.00">
        <route edges="200568455#0 227216231#0 236818215 236818214 187938710#0 169400609#0 224821293#0 224821293#2 1232799370 1232799371#2 1232799371#4 277203712 236809165"/>
    </vehicle>
    <vehicle id="bus_131" type="bus" depart="1965.00">
        <route edges="29114711#0.184 1362017843 1362017842.95 313992354#0 313992354#1 1362017841 153776638#0 153776638#0.87 224821292#0 1147624737#0 1147624737#1"/>
    </vehicle>
    <vehicle id="bus_132" type="bus" depart="1980.00">
        <route edges="161297934 1362019276 29092803 942711932#0 61316958 236818221#0 224821293#2 1232799370 1232799371#2"/>
    </vehicle>
    <vehicle id="bus_133" type="bus" depart="1995.00">
        <route edges="200568455#0 227216231#0 236818215 236818214 187938710#0 27348585#0 61316915 287956205 25126523 1362019277 1362020490"/>
    </vehicle>
    <vehicle id="bus_134" type="bus" depart="2010.00">
        <route edges="287956206#2 1271126935 169400610#0 771467599#0 224821292#0 1147624737#0 1147624737#1"/>
    </vehicle>
    <vehicle id="bus_135" type="bus" depart="2025.00">
        <route edges="200568455#0 227216231#0 236818215 236818214 187938710#0 169400609#0 224821293#0 224821293#2 1232799370 1232799371#2 1232799371#4 277203712 236809165"/>
    </vehicle>
    <vehicle id="bus_136" type="bus" depart="2040.00">
        <route edges="277203721 277203724 200568452#0"/>
    </vehicle>
    <vehicle id="bus_137" type="bus" depart="2055.00">
        <route edges="29114711#0.184 1362017843 1362017842.95 313992354#0 313992354#1 1362017841 313992351#0 287311357#0 169400609#0 224821293#0 224821293#2 1232799370 1232799371#2 1232799371#4 277203712 236809165"/>
    </vehicle>
    <vehicle id="bus_139" type="bus" depart="2085.00">
        <route edges="236818214 187938710#0 169400609#0 224821293#0 224821293#2 1232799370 1232799371#2 1232799371#4 277203712 236809165"/>
    </vehicle>
    <vehicle id="bus_140" type="bus" depart="2100.00">
        <route edges="961539471 961539472 236811148 236811149#0 1451328237#0 E1 1323631883 430532793.85 430532793.85.34 430532793.85.34.10 430532795"/>
    </vehicle>