<?xml version="1.0" encoding="UTF-8"?>

<!-- generated on 2026-03-16T22:35:32.295229+01:00 by Eclipse SUMO netedit 1.26.0
-->

<routes xmlns:xsi="http://www.w3.org/2001/XMLSchema-instance" xsi:noNamespaceSchemaLocation="http://sumo.dlr.de/xsd/routes_file.xsd">
    <!-- VTypes -->
    <vType id="bus" length="12.00" maxSpeed="13.89" vClass="bus" emissionClass="HBEFA3/HDV_D_EU4" guiShape="bus" color="orange" laneChangeModel="SL2015" lcStrategic="0.5" lcCooperative="1" lcSpeedGain="3.8" lcAssertive="1.5" accel="1.2" decel="4.0" sigma="0.4"/>
    <!-- Vehicles, persons and containers (sorted by depart) -->
    <vehicle id="bus_0" type="bus" depart="0.00">
        <route edges="287311363#0 1348067247 1348067246#0 287311364 27476746 291941452 291941449 1232964862 27476764#0 -1348067248"/>
    </vehicle>
    <vehicle id="bus_1" type="bus" depart="50.00">
        <route edges="961539471 961539472 236811148 236811149#0 1271126935 169400610#0 224821292#0 1147624737#0 1147624737#1"/>
    </vehicle>
    <vehicle id="bus_2" type="bus" depart="100.00">
        <route edges="287956206#2 1271126935 187938713#0 287311357#0 169400609#0 224821293#2 1232799370 1232799371#2 1232799371#4 277203712 236809165"/>
    </vehicle>
    <vehicle id="bus_3" type="bus" depart="150.00">
        <route edges="61293002 61293002.258 236825276 291941452 291941449 1232964862 1232964863 287311364 236825277 -1316855122#3"/>
    </vehicle>
    <vehicle id="bus_4" type="bus" depart="200.00">
        <route edges="61293002 61293002.258 236825276 291941452 291941449 1232964862 1232964863 287311364 236825277"/>
    </vehicle>
    <vehicle id="bus_5" type="bus" depart="250.00">
        <route edges="200568455#0 227216231#0 236818215 236818214 187938710#0 169400609#0 224821293#2 1232799370 1232799371#2"/>
    </vehicle>
    <vehicle id="bus_6" type="bus" depart="300.00">
        <route edges="1347887395 255904385#0 61316958 236818220#0 287956206#2 1271126935 169400610#0 224821292#0 1147624737#0 1147624737#1"/>
    </vehicle>
    <vehicle id="bus_7" type="bus" depart="350.00">
        <route edges="61293002 61293002.258 236825276 291941452 291941449 1232964862 27476764#0"/>
    </vehicle>
    <vehicle id="bus_8" type="bus" depart="400.00">
        <route edges="27476801 287311363#0 1348067247 1348067246#0 287311364 27476746 291941452 942711943"/>
    </vehicle>
    <vehicle id="bus_9" type="bus" depart="450.00">
        <route edges="224821293#2 1232799370 1232799371#2 1232799371#4 277203712 236809165"/>
    </vehicle>
    <vehicle id="bus_10" type="bus" depart="500.00">
        <route edges="1348067247 1348067246#0 287311364 27476746 291941452 291941449 1232964862 27476764#0 -1348067248 61295588#0 25126523 1362019277 1362020490"/>
    </vehicle>
    <vehicle id="bus_11" type="bus" depart="550.00">
        <route edges="287311363#0 1348067247 1348067246#0 287311364 27476746 291941452 942711943 1347887395 255904385#0 61316958 236818220#0 287956206#2 1271126935 169400610#0"/>
    </vehicle>
    <vehicle id="bus_12" type="bus" depart="600.00">
        <route edges="187938712 287311363#0 1348067247 1348067246#0 287311364 27476746 291941452 942711943 1347887395 255904385#0 61316958"/>
    </vehicle>
    <vehicle id="bus_13" type="bus" depart="650.00">
        <route edges="61316958 236818220#0 287956206#2 1271126935 187938713#0 287311357#0 27348585#0 61316915 187938712 287311363#0"/>
    </vehicle>
    <vehicle id="bus_14" type="bus" depart="700.00">
        <route edges="200568455#0 227216231#0 236818215 236818214 187938710#0 27348585#0 61316915 287956205 25126523 1362019277"/>
    </vehicle>
    <vehicle id="bus_15" type="bus" depart="750.00">
        <route edges="161297934 1362019276 29092803 942711932#0 61316958"/>
    </vehicle>
    <vehicle id="bus_16" type="bus" depart="800.00">
        <route edges="961539471 961539472 236811148 236811149#0 1451328237#0"/>
    </vehicle>
    <vehicle id="bus_17" type="bus" depart="850.00">
        <route edges="29092803 942711932#0 61316958 236818220#0 287956206#2 1271126935 187938713#0"/>
    </vehicle>
    <vehicle id="bus_18" type="bus" depart="900.00">
        <route edges="961539472 236811148 236811149#0 1451328237#0 E1 1323631883 430532793.85 430532793.85.34 430532793.85.34.10 430532795"/>
    </vehicle>
    <vehicle id="bus_19" type="bus" depart="950.00">
        <route edges="29114711#0.184 1362017843 1362017842.95 313992354#0 313992354#1 1362017841 313992351#0 287311357#0 169400609#0 224821293#2 1232799370 1232799371#2 1232799371#4 277203712 236809165"/>
    </vehicle>
    <vehicle id="bus_20" type="bus" depart="1000.00">
        <route edges="961539471 961539472 236811148 236811149#0 1271126935 187938713#0 287311357#0 27348585#0 61316915 287956205 25126523 1362019277"/>
    </vehicle>
    <vehicle id="bus_21" type="bus" depart="1050.00">
        <route edges="961539471 961539472 236811148 236811149#0 1451328237#0 E1 1323631883 430532793.85 430532793.85.34 430532793.85.34.10 430532795"/>
    </vehicle>
    <vehicle id="bus_22" type="bus" depart="1100.00">
        <route edges="200568455#0 227216231#0 236818215 236818214"/>
    </vehicle>
    <vehicle id="bus_23" type="bus" depart="1150.00">
        <route edges="961539471 961539472 236811148 236811149#0 1451328237#0 E1 1323631883 430532793.85 430532793.85.34"/>
    </vehicle>
    <vehicle id="bus_24" type="bus" depart="1200.00">
        <route edges="200568455#0 227216231#0 236818215 236818214 161297931#0 432309716#0 287956206#2 1271126935 169400610#0 224821292#0 1147624737#0"/>
    </vehicle>
    <vehicle id="bus_25" type="bus" depart="1250.00">
        <route edges="961539471 961539472 236811148 236811149#0 1271126935 187938713#0 287311357#0 27348585#0 61316915 187938712 287311363#0 1348067247 1348067246#0 287311364 27476746 291941452 942711943 1347887395 255904385#0 61316958"/>
    </vehicle>
    <vehicle id="bus_26" type="bus" depart="1300.00">
        <route edges="236818215 236818214 187938710#0 169400609#0 224821293#2 1232799370 1232799371#2 1232799371#4 277203712 236809165"/>
    </vehicle>
    <vehicle id="bus_27" type="bus" depart="1350.00">
        <route edges="187938710#0 27348585#0 61316915 187938712 287311363#0 1348067247 1348067246#0 287311364 27476746 291941452 942711943 1347887395 255904385#0 61316958 236818220#0 287956206#2 1451328237#0 E1 1323631883 430532793.85 430532793.85.34 430532793.85.34.10 430532795"/>
    </vehicle>
    <vehicle id="bus_28" type="bus" depart="1400.00">
        <route edges="236811149#0 1271126935 187938713#0 287311357#0 27348585#0 61316915 187938712 287311363#0 1348067247 1348067246#0"/>
    </vehicle>
    <vehicle id="bus_29" type="bus" depart="1450.00">
        <route edges="161297934 1362019276 29092803 942711932#0 61316958 236818220#0 287956206#2 1271126935 187938713#0 287311357#0 27348585#0 61316915 287956205 25126523 1362019277 1362020490"/>
    </vehicle>
    <vehicle id="bus_30" type="bus" depart="1500.00">
        <route edges="236818214 187938710#0 169400609#0 224821293#2 1232799370 1232799371#2 1232799371#4 277203712 236809165"/>
    </vehicle>
    <vehicle id="bus_31" type="bus" depart="1550.00">
        <route edges="1362017842.95 313992354#0 313992354#1 1362017841"/>
    </vehicle>
    <vehicle id="bus_32" type="bus" depart="1600.00">
        <route edges="161297934 1362019276 29092803 942711932#0 61316958 236818220#0 287956206#2 1271126935 169400610#0 224821292#0 1147624737#0 1147624737#1"/>
    </vehicle>
    <vehicle id="bus_33" type="bus" depart="1650.00">
        <route edges="961539471 961539472 236811148 153776637#0 224821293#2 1232799370 1232799371#2 1232799371#4 277203712 236809165"/>
    </vehicle>
    <vehicle id="bus_34" type="bus" depart="1700.00">
        <route edges="236818215 236818214 161297931#0 432309716#0 287956206#2"/>
    </vehicle>
    <vehicle id="bus_35" type="bus" depart="1750.00">
        <route edges="61293002 61293002.258 236825276 291941452 942711943 1347887395 255904385#0 61316958 236818220#0 287956206#2 1271126935"/>
    </vehicle>
    <vehicle id="bus_36" type="bus" depart="1800.00">
        <route edges="981046127#0 313992354#1 1362017841 153776638#0 224821292#0 1147624737#0 1147624737#1"/>
    </vehicle>
    <vehicle id="bus_37" type="bus" depart="1850.00">
        <route edges="236811149#0 1271126935 187938713#0 287311357#0 27348585#0 61316915 287956205 25126523 1362019277 1362020490"/>
    </vehicle>
    <vehicle id="bus_38" type="bus" depart="1900.00">
        <route edges="236818214 161297931#0 432309716#0 287956206#2 1451328237#0 E1 1323631883 430532793.85 430532793.85.34 430532793.85.34.10 430532795"/>
    </vehicle>
    <vehicle id="bus_39" type="bus" depart="1950.00">
        <route edges="E1 1323631883 430532793.85 430532793.85.34"/>
    </vehicle>
    <vehicle id="bus_40" type="bus" depart="2000.00">
        <route edges="961539472 236811148 236811149#0 1271126935 187938713#0 287311357#0 27348585#0 61316915"/>
    </vehicle>
    <vehicle id="bus_41" type="bus" depart="2050.00">
        <route edges="942711932#0 61316958 236818221#0 224821293#2 1232799370 1232799371#2 1232799371#4"/>
    </vehicle>
    <vehicle id="bus_42" type="bus" depart="2100.00">
        <route edges="236818220#0 287956206#2 1271126935 187938713#0 287311357#0 27348585#0 61316915 187938712 287311363#0 1348067247"/>
    </vehicle>
    <vehicle id="bus_43" type="bus" depart="2150.00">
        <route edges="236811148 236811149#0 1271126935 169400610#0 224821292#0 1147624737#0"/>
    </vehicle>
    <vehicle id="bus_44" type="bus" depart="2200.00">
        <route edges="187938710#0 27348585#0 61316915 187938712 287311363#0 1348067247 1348067246#0 287311364 27476746 291941452 942711943 1347887395 255904385#0 61316958 236818220#0 287956206#2"/>
    </vehicle>
    <vehicle id="bus_45" type="bus" depart="2250.00">
        <route edges="961539472"/>
    </vehicle>
    <vehicle id="bus_46" type="bus" depart="2300.00">
        <route edges="961539472 236811148 153776637#0 224821293#2 1232799370 1232799371#2 1232799371#4 277203712 236809165"/>
    </vehicle>
    <vehicle id="bus_47" type="bus" depart="2350.00">
        <route edges="1271126935"/>
    </vehicle>
    <vehicle id="bus_48" type="bus" depart="2400.00">
        <route edges="27348585#0 61316915 187938712 287311363#0 1348067247 1348067246#0 287311364 27476746 291941452 942711943 1347887395 255904385#0 61316958"/>
    </vehicle>
    <vehicle id="bus_49" type="bus" depart="2450.00">
        <route edges="161297934 1362019276 29092803 942711932#0 61316958 236818220#0 287956206#2 1271126935 187938713#0 287311357#0 27348585#0"/>
    </vehicle>
    <vehicle id="bus_50" type="bus" depart="2500.00">
        <route edges="29114711#0.184 1362017843 1362017842.95 196662201 942711933 196664103 1362019277 1362020490"/>
    </vehicle>
    <vehicle id="bus_51" type="bus" depart="2550.00">
        <route edges="E1"/>
    </vehicle>
    <vehicle id="bus_52" type="bus" depart="2600.00">
        <route edges="1271126935 187938713#0 287311357#0 27348585#0 61316915 187938712 287311363#0 1348067247"/>
    </vehicle>
    <vehicle id="bus_53" type="bus" depart="2650.00">
        <route edges="187938710#0 27348585#0 61316915 187938712 287311363#0 1348067247 1348067246#0 287311364 27476746 291941452 942711943 1347887395 255904385#0 61316958"/>
    </vehicle>
    <vehicle id="bus_54" type="bus" depart="2700.00">
        <route edges="961539471 961539472 236811148 236811149#0 1451328237#0 E1 1323631883 430532793.85 430532793.85.34 430532793.85.34.10 430532795"/>
    </vehicle>
    <vehicle id="bus_55" type="bus" depart="2750.00">
        <route edges="224821293#2 1232799370 1232799371#2"/>
    </vehicle>
    <vehicle id="bus_56" type="bus" depart="2800.00">
        <route edges="287956206#2 1271126935 187938713#0 287311357#0 27348585#0 61316915 187938712 287311363#0 1348067247 1348067246#0 287311364 236825277 -1316855122#3"/>
    </vehicle>
    <vehicle id="bus_57" type="bus" depart="2850.00">
        <route edges="61295588#0 25126523 1362019277 1362020490"/>
    </vehicle>
    <vehicle id="bus_58" type="bus" depart="2900.00">
        <route edges="29114711#0.184 1362017843 1362017842.95 313992354#0 313992354#1 1362017841 313992351#0 287311357#0 27348585#0 61316915 187938712 287311363#0 1348067247 1348067246#0 287311364 27476746 291941452 942711943 1347887395 255904385#0 61316958"/>
    </vehicle>
    <vehicle id="bus_59" type="bus" depart="2950.00">
        <route edges="1362017843 1362017842.95 313992354#0 313992354#1 1362017841 153776638#0 224821292#0 1147624737#0 1147624737#1"/>
    </vehicle>
    <vehicle id="bus_60" type="bus" depart="3000.00">
        <route edges="1362017841 313992351#0 287311357#0 169400609#0 224821293#2 1232799370 1232799371#2 1232799371#4 277203712 236809165"/>
    </vehicle>
    <vehicle id="bus_61" type="bus" depart="3050.00">
        <route edges="313992354#1 1362017841 313992351#0 287311357#0 432309716#0 287956206#2 1451328237#0 E1 1323631883"/>
    </vehicle>
    <vehicle id="bus_62" type="bus" depart="3100.00">
        <route edges="287311363#0 1348067247 1348067246#0 287311364 27476746 291941452 291941449 1232964862 27476764#0 -1348067248 61295588#0 25126523 1362019277"/>
    </vehicle>
    <vehicle id="bus_63" type="bus" depart="3150.00">
        <route edges="942711932#0 61316958 236818220#0 287956206#2 1271126935 169400610#0 224821292#0 1147624737#0 1147624737#1"/>
    </vehicle>
    <vehicle id="bus_64" type="bus" depart="3200.00">
        <route edges="236811149#0 1271126935 187938713#0 287311357#0 27348585#0 61316915 287956205 25126523 1362019277 1362020490"/>
    </vehicle>
    <vehicle id="bus_65" type="bus" depart="3250.00">
        <route edges="287311363#0 1348067247 1348067246#0 287311364 27476746 291941452 291941449 1232964862 27476764#0 -1348067248 61295588#0 25126523 1362019277"/>
    </vehicle>
    <vehicle id="bus_66" type="bus" depart="3300.00">
        <route edges="236811149#0 1271126935 187938713#0 287311357#0 27348585#0 61316915 187938712 287311363#0 1348067247 1348067246#0 287311364 236825277 -1316855122#3"/>
    </vehicle>
    <vehicle id="bus_67" type="bus" depart="3350.00">
        <route edges="1271126935 187938713#0 287311357#0 432309716#0 287956206#2 1451328237#0 E1 1323631883 430532793.85 430532793.85.34 430532793.85.34.10 430532795"/>
    </vehicle>
    <vehicle id="bus_68" type="bus" depart="3400.00">
        <route edges="961539471 961539472 236811148 153776637#0 224821293#2 1232799370 1232799371#2 1232799371#4 277203712 236809165"/>
    </vehicle>
    <vehicle id="bus_69" type="bus" depart="3450.00">
        <route edges="61316958 236818221#0 224821293#2 1232799370 1232799371#2 1232799371#4 277203712 236809165"/>
    </vehicle>
    <vehicle id="bus_70" type="bus" depart="3500.00">
        <route edges="200568455#0 227216231#0 236818215 236818214 161297931#0 432309716#0 287956206#2 1451328237#0 E1 1323631883 430532793.85 430532793.85.34 430532793.85.34.10 430532795"/>
    </vehicle>
    <vehicle id="bus_71" type="bus" depart="3550.00">
        <route edges="61293002 61293002.258 236825276 291941452 942711943 1347887395 255904385#0 61316958 236818220#0 287956206#2 1451328237#0 E1 1323631883 430532793.85 430532793.85.34 430532793.85.34.10 430532795"/>
    </vehicle>
</routes>
