<?xml version="1.0" encoding="UTF-8"?>

<!-- generated on 2026-03-26T19:57:47.249529+01:00 by Eclipse SUMO netedit 1.26.0
-->

<routes xmlns:xsi="http://www.w3.org/2001/XMLSchema-instance" xsi:noNamespaceSchemaLocation="http://sumo.dlr.de/xsd/routes_file.xsd">
    <!-- VTypes -->
    <vType id="car" length="5.00" maxSpeed="13.89" vClass="passenger" emissionClass="HBEFA3/PC_G_EU4" guiShape="passenger" color="white" lcStrategic="1.0" lcCooperative="1" lcSpeedGain="1.0" lcAssertive="1.0" accel="2.6" decel="4.5" sigma="0.5"/>
    <!-- Vehicles, persons and containers (sorted by depart) -->
    <vehicle id="car_0" type="car" depart="0.00">
        <route edges="287311357#0 27348585#0 61316915 187938712 287311363#0 1348067247 1348067246#0 287311364 27476746 291941452 291941449 1232964862 27476764#0 -1348067248"/>
    </vehicle>
    <vehicle id="car_1" type="car" depart="2.00">
        <route edges="961539471 961539472 236811148 236811149#0 1271126935 169400610#0 224821292#0 1147624737#0 1147624737#1"/>
    </vehicle>
    <vehicle id="car_2" type="car" depart="4.00">
        <route edges="161297934 1362019276 29092803 942711932#0 61316958 236818221#0 224821293#2"/>
    </vehicle>
    <vehicle id="car_3" type="car" depart="6.00">
        <route edges="287311363#0 1348067247 1348067246#0 287311364 27476746 291941452 942711943 1347887395 255904385#0 61316958 236818221#0 224821293#2 1232799370 1232799371#2 1232799371#4 277203712 236809165"/>
    </vehicle>
    <vehicle id="car_4" type="car" depart="8.00">
        <route edges="61293002 61293002.258 236825276 291941452 291941449 1232964862 1232964863 287311364 236825277 -1316855122#3"/>
    </vehicle>
    <vehicle id="car_5" type="car" depart="10.00">
        <route edges="200568455#0 227216231#0 236818215 236818214 187938710#0 169400609#0 224821293#2 1232799370 1232799371#2"/>
    </vehicle>
    <vehicle id="car_6" type="car" depart="12.00">
        <route edges="432309717 -27476683 942711942 1232964862 27476764#0"/>
    </vehicle>
    <vehicle id="car_7" type="car" depart="14.00">
        <route edges="27348585#0 61316915 187938712 287311363#0 1348067247 1348067246#0 287311364 27476746 291941452 942711943"/>
    </vehicle>
    <vehicle id="car_8" type="car" depart="16.00">
        <route edges="224821293#2 1232799370 1232799371#2 1232799371#4 277203712 236809165"/>
    </vehicle>
    <vehicle id="car_9" type="car" depart="18.00">
        <route edges="61316958 236818221#0 224821293#2 1232799370 1232799371#2 1232799371#4 277203712 236809165"/>
    </vehicle>
    <vehicle id="car_11" type="car" depart="22.00">
        <route edges="161297934 1362019276 29092803 942711932#0 61316958 236818220#0 287956206#2 1271126935 187938713#0 287311357#0 27348585#0 61316915 287956205 25126523 1362019277 1362020490"/>
    </vehicle>
    <vehicle id="car_12" type="car" depart="24.00">
        <route edges="1348067246#0 287311364 27476746 291941452 291941449 1232964862 27476764#0 -1348067248 61295588#0 25126523 1362019277 1362020490"/>
    </vehicle>
    <vehicle id="car_13" type="car" depart="26.00">
        <route edges="187938710#0 27348585#0 61316915 187938712 287311363#0 1348067247 1348067246#0 287311364 27476746 291941452 942711943 1347887395 255904385#0 61316958"/>
    </vehicle>
    <vehicle id="car_14" type="car" depart="28.00">
        <route edges="61316915 187938712 287311363#0"/>
    </vehicle>
    <vehicle id="car_16" type="car" depart="32.00">
        <route edges="200568455#0 227216231#0 236818215 236818214 187938710#0 27348585#0 61316915 287956205 25126523 1362019277"/>
    </vehicle>
    <vehicle id="car_17" type="car" depart="34.00">
        <route edges="161297934 1362019276 29092803 942711932#0 61316958"/>
    </vehicle>
    <vehicle id="car_20" type="car" depart="40.00">
        <route edges="29114711#0.184 1362017843 1362017842.95 313992354#0 313992354#1 1362017841 313992351#0 287311357#0 169400609#0 224821293#2 1232799370 1232799371#2 1232799371#4 277203712 236809165"/>
    </vehicle>
    <vehicle id="car_21" type="car" depart="42.00">
        <route edges="942711932#0 61316958 236818220#0 287956206#2 1271126935 187938713#0 287311357#0 27348585#0 61316915 287956205 25126523 1362019277"/>
    </vehicle>
    <vehicle id="car_23" type="car" depart="46.00">
        <route edges="200568455#0 227216231#0 236818215 236818214 161297931#0 432309716#0 287956206#2 1271126935 169400610#0 224821292#0 1147624737#0"/>
    </vehicle>
    <vehicle id="car_24" type="car" depart="48.00">
        <route edges="1271126935 187938713#0 287311357#0"/>
    </vehicle>
    <vehicle id="car_25" type="car" depart="50.00">
        <route edges="236818215 236818214 187938710#0 169400609#0 224821293#2 1232799370 1232799371#2 1232799371#4 277203712 236809165"/>
    </vehicle>
    <vehicle id="car_27" type="car" depart="54.00">
        <route edges="236811148 236811149#0 1271126935 187938713#0 287311357#0 27348585#0 61316915 187938712 287311363#0 1348067247 1348067246#0"/>
    </vehicle>
    <vehicle id="car_28" type="car" depart="56.00">
        <route edges="27348585#0 61316915 187938712 287311363#0 1348067247 1348067246#0 287311364 27476746 291941452 291941449 1232964862 27476764#0"/>
    </vehicle>
    <vehicle id="car_29" type="car" depart="58.00">
        <route edges="161297934 1362019276 29092803 942711932#0 61316958 236818220#0 287956206#2 1271126935 187938713#0 287311357#0 27348585#0 61316915 287956205 25126523 1362019277 1362020490"/>
    </vehicle>
    <vehicle id="car_30" type="car" depart="60.00">
        <route edges="1362017842.95 313992354#0 313992354#1 1362017841"/>
    </vehicle>
    <vehicle id="car_31" type="car" depart="62.00">
        <route edges="161297934 1362019276 29092803 942711932#0 61316958 236818220#0 287956206#2 1271126935 187938713#0 287311357#0 432309716#0"/>
    </vehicle>
    <vehicle id="car_32" type="car" depart="64.00">
        <route edges="61316958 236818220#0 287956206#2 1271126935 169400610#0 224821292#0 1147624737#0 1147624737#1"/>
    </vehicle>
    <vehicle id="car_33" type="car" depart="66.00">
        <route edges="161297934 1362019276 29092803 942711932#0 61316958 236818220#0 287956206#2 1271126935 169400610#0 224821292#0 1147624737#0 1147624737#1"/>
    </vehicle>
    <vehicle id="car_34" type="car" depart="68.00">
        <route edges="961539471 961539472 236811148 153776637#0 224821293#2 1232799370 1232799371#2 1232799371#4 277203712 236809165"/>
    </vehicle>
    <vehicle id="car_35" type="car" depart="70.00">
        <route edges="236818214 161297931#0 432309716#0 287956206#2"/>
    </vehicle>
    <vehicle id="car_36" type="car" depart="72.00">
        <route edges="432309717 -27476683 942711942 1232964862 1232964863 287311364 27476746 291941452 942711943 1347887395 255904385#0 61316958 236818220#0 287956206#2 1271126935"/>
    </vehicle>
    <vehicle id="car_37" type="car" depart="74.00">
        <route edges="961539472 236811148 236811149#0 1271126935 169400610#0 224821292#0 1147624737#0 1147624737#1"/>
    </vehicle>
    <vehicle id="car_38" type="car" depart="76.00">
        <route edges="236811148 236811149#0 1271126935 187938713#0 287311357#0 27348585#0 61316915 287956205 25126523 1362019277 1362020490"/>
    </vehicle>
    <vehicle id="car_41" type="car" depart="82.00">
        <route edges="961539471 961539472 236811148 236811149#0 1271126935 187938713#0 287311357#0 27348585#0 61316915"/>
    </vehicle>
    <vehicle id="car_42" type="car" depart="84.00">
        <route edges="61316958 236818221#0 224821293#2 1232799370 1232799371#2 1232799371#4"/>
    </vehicle>
    <vehicle id="car_43" type="car" depart="86.00">
        <route edges="236818215 236818214 187938710#0 27348585#0 61316915 187938712 287311363#0 1348067247 1348067246#0"/>
    </vehicle>
    <vehicle id="car_44" type="car" depart="88.00">
        <route edges="227216231#0 236818215 236818214 161297931#0 432309716#0 287956206#2 1271126935 169400610#0 224821292#0 1147624737#0"/>
    </vehicle>
    <vehicle id="car_45" type="car" depart="90.00">
        <route edges="187938710#0 27348585#0 61316915 187938712 287311363#0 1348067247 1348067246#0 287311364 27476746 291941452 942711943 1347887395 255904385#0 61316958 236818220#0 287956206#2"/>
    </vehicle>
    <vehicle id="car_46" type="car" depart="92.00">
        <route edges="961539471 961539472"/>
    </vehicle>
    <vehicle id="car_47" type="car" depart="94.00">
        <route edges="1362019277 1362020490"/>
    </vehicle>
    <vehicle id="car_48" type="car" depart="96.00">
        <route edges="961539471 961539472 236811148 153776637#0 224821293#2 1232799370 1232799371#2 1232799371#4 277203712 236809165"/>
    </vehicle>
    <vehicle id="car_49" type="car" depart="98.00">
        <route edges="1232799371#4 277203712 236809165"/>
    </vehicle>
    <vehicle id="car_50" type="car" depart="100.00">
        <route edges="1271126935"/>
    </vehicle>
    <vehicle id="car_51" type="car" depart="102.00">
        <route edges="236811148 153776637#0 224821293#2 1232799370 1232799371#2 1232799371#4 277203712 236809165"/>
    </vehicle>
    <vehicle id="car_52" type="car" depart="104.00">
        <route edges="161297934 1362019276 29092803 942711932#0 61316958 236818220#0 287956206#2 1271126935 187938713#0 287311357#0 27348585#0"/>
    </vehicle>
    <vehicle id="car_53" type="car" depart="106.00">
        <route edges="29114711#0.184 1362017843 1362017842.95 196662201 942711933 196664103 1362019277 1362020490"/>
    </vehicle>
    <vehicle id="car_54" type="car" depart="108.00">
        <route edges="E1"/>
    </vehicle>
    <vehicle id="car_55" type="car" depart="110.00">
        <route edges="1271126935 187938713#0 287311357#0 27348585#0 61316915 187938712 287311363#0 1348067247 1348067246#0"/>
    </vehicle>
    <vehicle id="car_56" type="car" depart="112.00">
        <route edges="187938710#0 27348585#0 61316915 187938712 287311363#0 1348067247 1348067246#0 287311364 27476746 291941452 942711943 1347887395 255904385#0 61316958"/>
    </vehicle>
    <vehicle id="car_58" type="car" depart="116.00">
        <route edges="61293002 61293002.258 236825276 291941452 291941449 1232964862 27476764#0 -1348067248 61295588#0 25126523 1362019277 1362020490"/>
    </vehicle>
    <vehicle id="car_59" type="car" depart="118.00">
        <route edges="287956206#2 1271126935 187938713#0 287311357#0 27348585#0 61316915 187938712 287311363#0 1348067247 1348067246#0 287311364 27476746 291941452 942711943 1347887395 255904385#0 61316958"/>
    </vehicle>
    <vehicle id="car_60" type="car" depart="120.00">
        <route edges="1362017843 1362017842.95 313992354#0 313992354#1 1362017841 153776638#0 224821292#0 1147624737#0 1147624737#1"/>
    </vehicle>
    <vehicle id="car_61" type="car" depart="122.00">
        <route edges="1362017841 313992351#0 287311357#0 169400609#0 224821293#2 1232799370 1232799371#2 1232799371#4 277203712 236809165"/>
    </vehicle>
    <vehicle id="car_62" type="car" depart="124.00">
        <route edges="313992351#0 287311357#0 432309716#0 287956206#2 1451328237#0 E1 1323631883"/>
    </vehicle>
    <vehicle id="car_63" type="car" depart="126.00">
        <route edges="236818215 236818214 161297931#0 432309716#0"/>
    </vehicle>
    <vehicle id="car_64" type="car" depart="128.00">
        <route edges="61316915 187938712 287311363#0 1348067247 1348067246#0 287311364 27476746 291941452 942711943 1347887395 255904385#0 61316958 236818220#0 287956206#2 1271126935 169400610#0 224821292#0 1147624737#0 1147624737#1"/>
    </vehicle>
    <vehicle id="car_65" type="car" depart="130.00">
        <route edges="236811148 236811149#0 1271126935 187938713#0 287311357#0 27348585#0 61316915 287956205 25126523 1362019277 1362020490"/>
    </vehicle>
    <vehicle id="car_66" type="car" depart="132.00">
        <route edges="236811149#0 1271126935 187938713#0 287311357#0 27348585#0 61316915 187938712 287311363#0 1348067247 1348067246#0 287311364 236825277 -1316855122#3"/>
    </vehicle>
    <vehicle id="car_68" type="car" depart="136.00">
        <route edges="961539471 961539472 236811148 153776637#0 224821293#2 1232799370 1232799371#2 1232799371#4 277203712 236809165"/>
    </vehicle>
    <vehicle id="car_69" type="car" depart="138.00">
        <route edges="1362019276 29092803 942711932#0 61316958 236818220#0 287956206#2 1271126935 169400610#0 224821292#0 1147624737#0 1147624737#1"/>
    </vehicle>
    <vehicle id="car_72" type="car" depart="144.00">
        <route edges="961539471 961539472 236811148 236811149#0 1271126935 187938713#0 287311357#0 27348585#0 61316915 187938712 287311363#0 1348067247 1348067246#0"/>
    </vehicle>
    <vehicle id="car_73" type="car" depart="146.00">
        <route edges="169400610#0 224821292#0 1147624737#0 1147624737#1"/>
    </vehicle>
    <vehicle id="car_74" type="car" depart="148.00">
        <route edges="430532793.85.34 430532793.85.34.10 430532795"/>
    </vehicle>
    <vehicle id="car_75" type="car" depart="150.00">
        <route edges="236811148 236811149#0"/>
    </vehicle>
    <vehicle id="car_77" type="car" depart="154.00">
        <route edges="200568455#0 227216231#0 236818215 236818214 187938710#0 27348585#0 61316915 187938712 287311363#0 1348067247 1348067246#0 287311364 27476746 291941452 942711943 1347887395 255904385#0 61316958"/>
    </vehicle>
    <vehicle id="car_79" type="car" depart="158.00">
        <route edges="61293002 61293002.258 236825276 291941452 291941449 1232964862 27476764#0 -1348067248 61295588#0 25126523 1362019277"/>
    </vehicle>
    <vehicle id="car_81" type="car" depart="162.00">
        <route edges="236818214 187938710#0 27348585#0 61316915 287956205 25126523 1362019277 1362020490"/>
    </vehicle>
    <vehicle id="car_83" type="car" depart="166.00">
        <route edges="961539471 961539472 236811148 236811149#0 1271126935 187938713#0 287311357#0 27348585#0 61316915 287956205 25126523 1362019277 1362020490"/>
    </vehicle>
    <vehicle id="car_84" type="car" depart="168.00">
        <route edges="287311357#0 432309716#0 287956206#2 1271126935 187938713#0"/>
    </vehicle>
    <vehicle id="car_85" type="car" depart="170.00">
        <route edges="961539472 236811148 153776637#0 224821293#2 1232799370 1232799371#2 1232799371#4 277203712 236809165"/>
    </vehicle>
    <vehicle id="car_86" type="car" depart="172.00">
        <route edges="961539471 961539472 236811148 236811149#0 1271126935 169400610#0 224821292#0 1147624737#0 1147624737#1"/>
    </vehicle>
    <vehicle id="car_87" type="car" depart="174.00">
        <route edges="961539471 961539472 236811148 236811149#0 1271126935"/>
    </vehicle>
    <vehicle id="car_88" type="car" depart="176.00">
        <route edges="961539471 961539472 236811148 236811149#0 1271126935 187938713#0 287311357#0 27348585#0 61316915 287956205 25126523 1362019277"/>
    </vehicle>
    <vehicle id="car_89" type="car" depart="178.00">
        <route edges="313992354#0 313992354#1 1362017841 313992351#0 287311357#0 27348585#0 61316915 287956205 25126523 1362019277 1362020490"/>
    </vehicle>
    <vehicle id="car_90" type="car" depart="180.00">
        <route edges="224821293#2 1232799370 1232799371#2 1232799371#4 277203712 236809165"/>
    </vehicle>
    <vehicle id="car_91" type="car" depart="182.00">
        <route edges="27348585#0"/>
    </vehicle>
    <vehicle id="car_92" type="car" depart="184.00">
        <route edges="224821292#0 1147624737#0 1147624737#1"/>
    </vehicle>
    <vehicle id="car_94" type="car" depart="188.00">
        <route edges="313992351#0 287311357#0 27348585#0 61316915 287956205 25126523 1362019277 1362020490"/>
    </vehicle>
    <vehicle id="car_95" type="car" depart="190.00">
        <route edges="236811148 236811149#0 1271126935 187938713#0 287311357#0 27348585#0 61316915 287956205 25126523 1362019277 1362020490"/>
    </vehicle>
    <vehicle id="car_96" type="car" depart="192.00">
        <route edges="961539471 961539472 236811148 236811149#0 1271126935 187938713#0 287311357#0 27348585#0 61316915 187938712 287311363#0 1348067247 1348067246#0 287311364 27476746 291941452 942711943 1347887395 255904385#0 61316958 236818220#0"/>
    </vehicle>
    <vehicle id="car_97" type="car" depart="194.00">
        <route edges="961539471 961539472 236811148 236811149#0"/>
    </vehicle>
    <vehicle id="car_98" type="car" depart="196.00">
        <route edges="200568455#0 227216231#0 236818215 236818214 187938710#0 169400609#0 224821293#2 1232799370 1232799371#2 1232799371#4 277203712 236809165"/>
    </vehicle>
    <vehicle id="car_99" type="car" depart="198.00">
        <route edges="-1348067248 61295588#0 25126523 1362019277 1362020490"/>
    </vehicle>
    <vehicle id="car_100" type="car" depart="200.00">
        <route edges="236811149#0 1271126935 187938713#0 287311357#0 169400609#0 224821293#2 1232799370 1232799371#2 1232799371#4 277203712 236809165"/>
    </vehicle>
    <vehicle id="car_101" type="car" depart="202.00">
        <route edges="236811149#0 1271126935 187938713#0 287311357#0 27348585#0 61316915 187938712 287311363#0 1348067247 1348067246#0"/>
    </vehicle>
    <vehicle id="car_102" type="car" depart="204.00">
        <route edges="236818214 161297931#0 432309716#0"/>
    </vehicle>
    <vehicle id="car_103" type="car" depart="206.00">
        <route edges="432309716#0 287956206#2 1271126935 187938713#0 287311357#0 169400609#0 224821293#2 1232799370 1232799371#2 1232799371#4"/>
    </vehicle>
    <vehicle id="car_104" type="car" depart="208.00">
        <route edges="29114711#0.184 1362017843 1362017842.95 313992354#0 313992354#1 1362017841"/>
    </vehicle>
    <vehicle id="car_105" type="car" depart="210.00">
        <route edges="161297934 1362019276 29092803 432309717 -27476683 942711942 1232964862 27476764#0 -1348067248"/>
    </vehicle>
    <vehicle id="car_106" type="car" depart="212.00">
        <route edges="61316958 236818220#0 287956206#2 1271126935 169400610#0 224821292#0 1147624737#0 1147624737#1"/>
    </vehicle>
    <vehicle id="car_107" type="car" depart="214.00">
        <route edges="236811148 236811149#0"/>
    </vehicle>
    <vehicle id="car_109" type="car" depart="218.00">
        <route edges="961539471 961539472 236811148 236811149#0"/>
    </vehicle>
    <vehicle id="car_110" type="car" depart="220.00">
        <route edges="313992351#0 287311357#0 169400609#0 224821293#2"/>
    </vehicle>
    <vehicle id="car_111" type="car" depart="222.00">
        <route edges="61293002.258 236825276 291941452 942711943 1347887395 255904385#0 61316958 236818221#0 224821293#2 1232799370 1232799371#2 1232799371#4 277203712 236809165"/>
    </vehicle>
    <vehicle id="car_112" type="car" depart="224.00">
        <route edges="961539471 961539472 236811148 153776637#0 224821293#2 1232799370 1232799371#2 1232799371#4 277203712"/>
    </vehicle>
    <vehicle id="car_113" type="car" depart="226.00">
        <route edges="1271126935 187938713#0 287311357#0 27348585#0 61316915 287956205 25126523 1362019277 1362020490"/>
    </vehicle>
    <vehicle id="car_114" type="car" depart="228.00">
        <route edges="187938710#0 27348585#0 61316915 187938712 287311363#0 1348067247 1348067246#0 287311364 27476746 291941452 942711943 1347887395 255904385#0 61316958 236818220#0 287956206#2 1451328237#0"/>
    </vehicle>
    <vehicle id="car_115" type="car" depart="230.00">
        <route edges="27348585#0 61316915 187938712 287311363#0 1348067247 1348067246#0 287311364 27476746 291941452 942711943 1347887395 255904385#0 61316958 236818221#0 224821293#2 1232799370"/>
    </vehicle>
    <vehicle id="car_116" type="car" depart="232.00">
        <route edges="29114711#0.184 1362017843 1362017842.95 313992354#0 313992354#1 1362017841 153776638#0 224821292#0 1147624737#0"/>
    </vehicle>
    <vehicle id="car_117" type="car" depart="234.00">
        <route edges="236811148 153776637#0 224821293#2 1232799370 1232799371#2 1232799371#4 277203712 236809165"/>
    </vehicle>
    <vehicle id="car_118" type="car" depart="236.00">
        <route edges="236811148 236811149#0 1271126935 187938713#0 287311357#0 27348585#0 61316915 187938712 287311363#0 1348067247 1348067246#0 287311364 27476746 291941452 942711943 1347887395"/>
    </vehicle>
    <vehicle id="car_119" type="car" depart="238.00">
        <route edges="236811148 236811149#0 1271126935 187938713#0 287311357#0 432309716#0"/>
    </vehicle>
    <vehicle id="car_120" type="car" depart="240.00">
        <route edges="61316958 236818220#0 287956206#2 1271126935 187938713#0 287311357#0"/>
    </vehicle>
    <vehicle id="car_121" type="car" depart="242.00">
        <route edges="200568455#0 227216231#0 236818215 236818214 187938710#0 27348585#0 61316915 187938712 287311363#0 1348067247 1348067246#0 287311364 27476746 291941452 942711943 1347887395 255904385#0 61316958 236818220#0"/>
    </vehicle>
    <vehicle id="car_122" type="car" depart="244.00">
        <route edges="236811148 153776637#0 224821293#2 1232799370 1232799371#2 1232799371#4"/>
    </vehicle>
    <vehicle id="car_123" type="car" depart="246.00">
        <route edges="236818214 161297931#0 432309716#0 287956206#2 1271126935 169400610#0 224821292#0 1147624737#0 1147624737#1"/>
    </vehicle>
    <vehicle id="car_124" type="car" depart="248.00">
        <route edges="227216231#0 236818215 236818214 187938710#0 169400609#0 224821293#2 1232799370 1232799371#2 1232799371#4 277203712 236809165"/>
    </vehicle>
    <vehicle id="car_125" type="car" depart="250.00">
        <route edges="169400610#0 224821292#0 1147624737#0 1147624737#1"/>
    </vehicle>
    <vehicle id="car_126" type="car" depart="252.00">
        <route edges="287311363#0 1348067247 1348067246#0 287311364 27476746 291941452 942711943 1347887395 255904385#0 61316958 236818220#0 287956206#2 1271126935 187938713#0 287311357#0 27348585#0 61316915 287956205"/>
    </vehicle>
    <vehicle id="car_127" type="car" depart="254.00">
        <route edges="961539471 961539472 236811148 236811149#0 1451328237#0 E1 1323631883"/>
    </vehicle>
    <vehicle id="car_128" type="car" depart="256.00">
        <route edges="29114711#0.184 1362017843 1362017842.95 313992354#0 313992354#1 1362017841 313992351#0 287311357#0"/>
    </vehicle>
    <vehicle id="car_129" type="car" depart="258.00">
        <route edges="1362017841 313992351#0 287311357#0 27348585#0 61316915 187938712 287311363#0 1348067247 1348067246#0 287311364 27476746 291941452 291941449 1232964862 27476764#0 -1348067248"/>
    </vehicle>
    <vehicle id="car_130" type="car" depart="260.00">
        <route edges="200568455#0 227216231#0 236818215 236818214 187938710#0 27348585#0 61316915 187938712 287311363#0 1348067247 1348067246#0 287311364 27476746 291941452 942711943 1347887395 255904385#0 61316958 236818220#0"/>
    </vehicle>
    <vehicle id="car_131" type="car" depart="262.00">
        <route edges="961539471 961539472 236811148 236811149#0 1271126935 187938713#0"/>
    </vehicle>
    <vehicle id="car_132" type="car" depart="264.00">
        <route edges="313992351#0 287311357#0 432309716#0 287956206#2 1271126935 169400610#0 224821292#0 1147624737#0 1147624737#1"/>
    </vehicle>
    <vehicle id="car_133" type="car" depart="266.00">
        <route edges="1348067246#0 287311364 27476746 291941452 942711943 1347887395 255904385#0 61316958 236818220#0 287956206#2 1271126935 187938713#0 287311357#0 27348585#0 61316915 187938712 287311363#0"/>
    </vehicle>
    <vehicle id="car_134" type="car" depart="268.00">
        <route edges="236811149#0 1271126935 169400610#0"/>
    </vehicle>
    <vehicle id="car_135" type="car" depart="270.00">
        <route edges="61316958 236818220#0 287956206#2 1451328237#0 E1 1323631883 430532793.85"/>
    </vehicle>
    <vehicle id="car_136" type="car" depart="272.00">
        <route edges="27348585#0 61316915 187938712 287311363#0 1348067247 1348067246#0 287311364 27476746 291941452 942711943 1347887395 255904385#0 61316958 236818220#0 287956206#2 1271126935 169400610#0 224821292#0"/>
    </vehicle>
    <vehicle id="car_137" type="car" depart="274.00">
        <route edges="236811149#0 1271126935 187938713#0 287311357#0 27348585#0 61316915 187938712 287311363#0 1348067247 1348067246#0 287311364 27476746 291941452 291941449 1232964862 27476764#0"/>
    </vehicle>
    <vehicle id="car_139" type="car" depart="278.00">
        <route edges="61293002.258 236825276 291941452 942711943 1347887395 255904385#0 61316958 236818220#0 287956206#2 1271126935 169400610#0 224821292#0 1147624737#0 1147624737#1"/>
    </vehicle>
    <vehicle id="car_140" type="car" depart="280.00">
        <route edges="61316958 236818220#0 287956206#2 1271126935"/>
    </vehicle>
    <vehicle id="car_142" type="car" depart="284.00">
        <route edges="29114711#0.184 1362017843 1362017842.95 196662201 942711933 196664103 1362019277 1362020490"/>
    </vehicle>
    <vehicle id="car_143" type="car" depart="286.00">
        <route edges="29114711#0.184 1362017843 1362017842.95 196662201 942711933 196664103 1362019277 1362020490"/>
    </vehicle>
    <vehicle id="car_144" type="car" depart="288.00">
        <route edges="277203721 277203724 200568452#0"/>
    </vehicle>
    <vehicle id="car_145" type="car" depart="290.00">
        <route edges="29114711#0.184 1362017843 1362017842.95 196662201 942711933 196664103 1362019277 1362020490"/>
    </vehicle>
    <vehicle id="car_146" type="car" depart="292.00">
        <route edges="169400610#0 224821292#0 1147624737#0 1147624737#1"/>
    </vehicle>
    <vehicle id="car_147" type="car" depart="294.00">
        <route edges="161297934 1362019276 29092803 942711932#0 61316958 236818220#0 287956206#2 1271126935 169400610#0 224821292#0 1147624737#0 1147624737#1"/>
    </vehicle>
    <vehicle id="car_148" type="car" depart="296.00">
        <route edges="27348585#0 61316915 187938712 287311363#0 1348067247 1348067246#0 287311364 27476746 291941452 942711943 1347887395 255904385#0 61316958 236818220#0 287956206#2 1271126935 187938713#0 287311357#0"/>
    </vehicle>
    <vehicle id="car_149" type="car" depart="298.00">
        <route edges="161297931#0 432309716#0 287956206#2 1271126935 187938713#0 287311357#0 27348585#0 61316915 187938712 287311363#0 1348067247"/>
    </vehicle>
    <vehicle id="car_150" type="car" depart="300.00">
        <route edges="236818215 236818214 187938710#0 27348585#0"/>
    </vehicle>
    <vehicle id="car_151" type="car" depart="302.00">
        <route edges="961539472 236811148 153776637#0 224821293#2 1232799370 1232799371#2 1232799371#4 277203712 236809165"/>
    </vehicle>
    <vehicle id="car_152" type="car" depart="304.00">
        <route edges="187938713#0 287311357#0 432309716#0 287956206#2 1271126935 169400610#0 224821292#0 1147624737#0 1147624737#1"/>
    </vehicle>
    <vehicle id="car_153" type="car" depart="306.00">
        <route edges="27348585#0 61316915 287956205 25126523 1362019277 1362020490"/>
    </vehicle>
    <vehicle id="car_154" type="car" depart="308.00">
        <route edges="961539471 961539472 236811148 153776637#0 224821293#2 1232799370 1232799371#2 1232799371#4 277203712 236809165"/>
    </vehicle>
    <vehicle id="car_155" type="car" depart="310.00">
        <route edges="29114711#0.184 1362017843 1362017842.95 313992354#0 313992354#1 1362017841 153776638#0 224821292#0 1147624737#0 1147624737#1"/>
    </vehicle>
    <vehicle id="car_156" type="car" depart="312.00">
        <route edges="942711932#0 61316958 236818220#0 287956206#2 1271126935 169400610#0 224821292#0"/>
    </vehicle>
    <vehicle id="car_157" type="car" depart="314.00">
        <route edges="942711932#0 61316958 236818221#0 224821293#2 1232799370 1232799371#2 1232799371#4 277203712 236809165"/>
    </vehicle>
    <vehicle id="car_159" type="car" depart="318.00">
        <route edges="61293002 61293002.258 236825276 291941452 942711943 1347887395 255904385#0 61316958 236818220#0 287956206#2 1271126935 187938713#0"/>
    </vehicle>
    <vehicle id="car_160" type="car" depart="320.00">
        <route edges="961539472 236811148 236811149#0 1271126935 169400610#0 224821292#0 1147624737#0 1147624737#1"/>
    </vehicle>
    <vehicle id="car_162" type="car" depart="324.00">
        <route edges="961539472 236811148 236811149#0 1271126935 187938713#0 287311357#0 27348585#0 61316915 287956205 25126523 1362019277 1362020490"/>
    </vehicle>
    <vehicle id="car_163" type="car" depart="326.00">
        <route edges="161297934 1362019276 29092803 942711932#0 61316958 236818220#0 287956206#2 1271126935 187938713#0 287311357#0 27348585#0 61316915 187938712 287311363#0 1348067247 1348067246#0"/>
    </vehicle>
    <vehicle id="car_164" type="car" depart="328.00">
        <route edges="287956206#2 1271126935 187938713#0 287311357#0 169400609#0 224821293#2 1232799370 1232799371#2"/>
    </vehicle>
    <vehicle id="car_165" type="car" depart="330.00">
        <route edges="153776638#0 224821292#0 1147624737#0 1147624737#1"/>
    </vehicle>
    <vehicle id="car_166" type="car" depart="332.00">
        <route edges="29114711#0.184 1362017843 1362017842.95 313992354#0 313992354#1 1362017841 313992351#0 287311357#0 27348585#0 61316915"/>
    </vehicle>
    <vehicle id="car_167" type="car" depart="334.00">
        <route edges="287956206#2 1271126935 187938713#0 287311357#0 27348585#0 61316915 187938712 287311363#0 1348067247 1348067246#0 287311364 27476746 291941452 942711943 1347887395 255904385#0 61316958"/>
    </vehicle>
    <vehicle id="car_168" type="car" depart="336.00">
        <route edges="236811148 153776637#0 224821293#2 1232799370 1232799371#2 1232799371#4 277203712 236809165"/>
    </vehicle>
    <vehicle id="car_169" type="car" depart="338.00">
        <route edges="61293002 61293002.258 236825276 291941452 942711943 1347887395 255904385#0 61316958 236818220#0 287956206#2 1271126935 169400610#0 224821292#0 1147624737#0 1147624737#1"/>
    </vehicle>
    <vehicle id="car_170" type="car" depart="340.00">