<?xml version="1.0" encoding="UTF-8"?>

<!-- generated on 2026-03-20 11:48:04.702612 by Eclipse SUMO randomTrips.py v1_26_0+0000-fa7df22d7f1
<configuration>
    <net-file value="network\osm.net.xml"/>
    <additional-files value="demand\vtypes.add.xml"/>
    <output-trip-file value="demand\car_ev.trips.xml"/>
    <route-file value="demand\car_ev.rou.xml"/>
    <prefix value="car_ev_"/>
    <trip-attributes value="type='car_ev'"/>
    <lanes value="True"/>
    <fringe-factor value="5.0"/>
    <edge-permission value="passenger"/>
    <period value="25.0"/>
    <poisson value="True"/>
</configuration>
-->

<!-- generated on 2026-03-20T11:48:04.629494+01:00 by Eclipse SUMO duarouter 1.26.0
<duarouterConfiguration xmlns:xsi="http://www.w3.org/2001/XMLSchema-instance" xsi:noNamespaceSchemaLocation="http://sumo.dlr.de/xsd/duarouterConfiguration.xsd">

    <input>
        <net-file value="network\osm.net.xml"/>
        <additional-files value="demand\vtypes.add.xml"/>
        <route-files value="demand\car_ev.trips.xml"/>
    </input>

    <output>
        <output-file value="demand\car_ev.rou.xml"/>
        <alternatives-output value="NUL"/>
    </output>

    <time>
        <begin value="0"/>
        <end value="3600.0"/>
    </time>

    <report>
        <no-warnings value="true"/>
        <ignore-errors value="true"/>
        <no-step-log value="true"/>
    </report>

</duarouterConfiguration>
-->

<routes xmlns:xsi="http://www.w3.org/2001/XMLSchema-instance" xsi:noNamespaceSchemaLocation="http://sumo.dlr.de/xsd/routes_file.xsd">
    <vType id="car_ev" length="4.80" maxSpeed="13.89" vClass="passenger" emissionClass="Energy/default" guiShape="passenger/hatchback" color="green" lcStrategic="0.5" lcCooperative="1" lcSpeedGain="3.5" lcAssertive="1.5" accel="3.2" decel="4.5" sigma="0.4"/>
    <vehicle id="car_ev_0" type="car_ev" depart="0.00">
        <route edges="287311357#0 27348585#0 61316915 187938712 287311363#0 1348067247 1348067246#0 287311364 27476746 291941452 291941449 1232964862 27476764#0 -1348067248"/>
    </vehicle>
    <vehicle id="car_ev_1" type="car_ev" depart="25.00">
        <route edges="961539471 961539472 236811148 236811149#0 1271126935 169400610#0 224821292#0 1147624737#0 1147624737#1"/>
    </vehicle>
    <vehicle id="car_ev_2" type="car_ev" depart="50.00">
        <route edges="161297934 1362019276 29092803 942711932#0 61316958 236818221#0 224821293#2"/>
    </vehicle>
    <vehicle id="car_ev_3" type="car_ev" depart="75.00">
        <route edges="287311363#0 1348067247 1348067246#0 287311364 27476746 291941452 942711943 1347887395 255904385#0 61316958 236818221#0 224821293#2 1232799370 1232799371#2 1232799371#4 277203712 236809165"/>
    </vehicle>
    <vehicle id="car_ev_4" type="car_ev" depart="100.00">
        <route edges="61293002 61293002.258 236825276 291941452 291941449 1232964862 1232964863 287311364 236825277 -1316855122#3"/>
    </vehicle>
    <vehicle id="car_ev_5" type="car_ev" depart="125.00">
        <route edges="200568455#0 227216231#0 236818215 236818214 187938710#0 169400609#0 224821293#2 1232799370 1232799371#2"/>
    </vehicle>
    <vehicle id="car_ev_6" type="car_ev" depart="150.00">
        <route edges="432309717 -27476683 942711942 1232964862 27476764#0"/>
    </vehicle>
    <vehicle id="car_ev_7" type="car_ev" depart="175.00">
        <route edges="27348585#0 61316915 187938712 287311363#0 1348067247 1348067246#0 287311364 27476746 291941452 942711943"/>
    </vehicle>
    <vehicle id="car_ev_8" type="car_ev" depart="200.00">
        <route edges="224821293#2 1232799370 1232799371#2 1232799371#4 277203712 236809165"/>
    </vehicle>
    <vehicle id="car_ev_9" type="car_ev" depart="225.00">
        <route edges="61316958 236818221#0 224821293#2 1232799370 1232799371#2 1232799371#4 277203712 236809165"/>
    </vehicle>
    <vehicle id="car_ev_10" type="car_ev" depart="250.00">
        <route edges="29114711#0.184 1362017843 1362017842.95 313992354#0 313992354#1 1362017841 313992351#0 287311357#0 432309716#0 287956206#2 1451328237#0 E1 1323631883 430532793.85 430532793.85.34 430532793.85.34.10 -407552210#1"/>
    </vehicle>
    <vehicle id="car_ev_11" type="car_ev" depart="275.00">
        <route edges="161297934 1362019276 29092803 942711932#0 61316958 236818220#0 287956206#2 1271126935 187938713#0 287311357#0 27348585#0 61316915 287956205 25126523 1362019277 1362020490"/>
    </vehicle>
    <vehicle id="car_ev_12" type="car_ev" depart="300.00">
        <route edges="1348067246#0 287311364 27476746 291941452 291941449 1232964862 27476764#0 -1348067248 61295588#0 25126523 1362019277 1362020490"/>
    </vehicle>
    <vehicle id="car_ev_13" type="car_ev" depart="325.00">
        <route edges="187938710#0 27348585#0 61316915 187938712 287311363#0 1348067247 1348067246#0 287311364 27476746 291941452 942711943 1347887395 255904385#0 61316958"/>
    </vehicle>
    <vehicle id="car_ev_14" type="car_ev" depart="350.00">
        <route edges="61316915 187938712 287311363#0"/>
    </vehicle>
    <vehicle id="car_ev_15" type="car_ev" depart="375.00">
        <route edges="161297934 1362019276 29092803 942711932#0 61316958 236818220#0 287956206#2 1451328237#0 E1 1323631883 430532793.85 430532793.85.34 430532793.85.34.10 -407552210#1"/>
    </vehicle>
    <vehicle id="car_ev_16" type="car_ev" depart="400.00">
        <route edges="200568455#0 227216231#0 236818215 236818214 187938710#0 27348585#0 61316915 287956205 25126523 1362019277"/>
    </vehicle>
    <vehicle id="car_ev_17" type="car_ev" depart="425.00">
        <route edges="161297934 1362019276 29092803 942711932#0 61316958"/>
    </vehicle>
    <vehicle id="car_ev_18" type="car_ev" depart="450.00">
        <route edges="1323631883 430532793.85 430532793.85.34 430532793.85.34.10 -407552210#1"/>
    </vehicle>
    <vehicle id="car_ev_19" type="car_ev" depart="475.00">
        <route edges="961539471 961539472 236811148 236811149#0 1451328237#0 E1 1323631883 430532793.85 430532793.85.34 430532793.85.34.10 430532795"/>
    </vehicle>
    <vehicle id="car_ev_20" type="car_ev" depart="500.00">
        <route edges="29114711#0.184 1362017843 1362017842.95 313992354#0 313992354#1 1362017841 313992351#0 287311357#0 169400609#0 224821293#2 1232799370 1232799371#2 1232799371#4 277203712 236809165"/>
    </vehicle>
    <vehicle id="car_ev_21" type="car_ev" depart="525.00">
        <route edges="942711932#0 61316958 236818220#0 287956206#2 1271126935 187938713#0 287311357#0 27348585#0 61316915 287956205 25126523 1362019277"/>
    </vehicle>
    <vehicle id="car_ev_22" type="car_ev" depart="550.00">
        <route edges="961539471 961539472 236811148 236811149#0 1451328237#0 E1 1323631883 430532793.85 430532793.85.34 430532793.85.34.10 430532795"/>
    </vehicle>
    <vehicle id="car_ev_23" type="car_ev" depart="575.00">
        <route edges="200568455#0 227216231#0 236818215 236818214 161297931#0 432309716#0 287956206#2 1271126935 169400610#0 224821292#0 1147624737#0"/>
    </vehicle>
    <vehicle id="car_ev_24" type="car_ev" depart="600.00">
        <route edges="1271126935 187938713#0 287311357#0"/>
    </vehicle>
    <vehicle id="car_ev_25" type="car_ev" depart="625.00">
        <route edges="236818215 236818214 187938710#0 169400609#0 224821293#2 1232799370 1232799371#2 1232799371#4 277203712 236809165"/>
    </vehicle>
    <vehicle id="car_ev_26" type="car_ev" depart="650.00">
        <route edges="187938710#0 27348585#0 61316915 187938712 287311363#0 1348067247 1348067246#0 287311364 27476746 291941452 942711943 1347887395 255904385#0 61316958 236818220#0 287956206#2 1451328237#0 E1 1323631883 430532793.85 430532793.85.34 430532793.85.34.10 430532795"/>
    </vehicle>
    <vehicle id="car_ev_27" type="car_ev" depart="675.00">
        <route edges="236811148 236811149#0 1271126935 187938713#0 287311357#0 27348585#0 61316915 187938712 287311363#0 1348067247 1348067246#0"/>
    </vehicle>
    <vehicle id="car_ev_28" type="car_ev" depart="700.00">
        <route edges="27348585#0 61316915 187938712 287311363#0 1348067247 1348067246#0 287311364 27476746 291941452 291941449 1232964862 27476764#0"/>
    </vehicle>
    <vehicle id="car_ev_29" type="car_ev" depart="725.00">
        <route edges="161297934 1362019276 29092803 942711932#0 61316958 236818220#0 287956206#2 1271126935 187938713#0 287311357#0 27348585#0 61316915 287956205 25126523 1362019277 1362020490"/>
    </vehicle>
    <vehicle id="car_ev_30" type="car_ev" depart="750.00">
        <route edges="1362017842.95 313992354#0 313992354#1 1362017841"/>
    </vehicle>
    <vehicle id="car_ev_31" type="car_ev" depart="775.00">
        <route edges="161297934 1362019276 29092803 942711932#0 61316958 236818220#0 287956206#2 1271126935 187938713#0 287311357#0 432309716#0"/>
    </vehicle>
    <vehicle id="car_ev_32" type="car_ev" depart="800.00">
        <route edges="61316958 236818220#0 287956206#2 1271126935 169400610#0 224821292#0 1147624737#0 1147624737#1"/>
    </vehicle>
    <vehicle id="car_ev_33" type="car_ev" depart="825.00">
        <route edges="161297934 1362019276 29092803 942711932#0 61316958 236818220#0 287956206#2 1271126935 169400610#0 224821292#0 1147624737#0 1147624737#1"/>
    </vehicle>
    <vehicle id="car_ev_34" type="car_ev" depart="850.00">
        <route edges="961539471 961539472 236811148 153776637#0 224821293#2 1232799370 1232799371#2 1232799371#4 277203712 236809165"/>
    </vehicle>
    <vehicle id="car_ev_35" type="car_ev" depart="875.00">
        <route edges="236818214 161297931#0 432309716#0 287956206#2"/>
    </vehicle>
    <vehicle id="car_ev_36" type="car_ev" depart="900.00">
        <route edges="432309717 -27476683 942711942 1232964862 1232964863 287311364 27476746 291941452 942711943 1347887395 255904385#0 61316958 236818220#0 287956206#2 1271126935"/>
    </vehicle>
    <vehicle id="car_ev_37" type="car_ev" depart="925.00">
        <route edges="961539472 236811148 236811149#0 1271126935 169400610#0 224821292#0 1147624737#0 1147624737#1"/>
    </vehicle>
    <vehicle id="car_ev_38" type="car_ev" depart="950.00">
        <route edges="236811148 236811149#0 1271126935 187938713#0 287311357#0 27348585#0 61316915 287956205 25126523 1362019277 1362020490"/>
    </vehicle>
    <vehicle id="car_ev_39" type="car_ev" depart="975.00">
        <route edges="236811149#0 1451328237#0 E1 1323631883 430532793.85 430532793.85.34 430532793.85.34.10 430532795"/>
    </vehicle>
    <vehicle id="car_ev_40" type="car_ev" depart="1000.00">
        <route edges="E1 1323631883 430532793.85 430532793.85.34"/>
    </vehicle>
    <vehicle id="car_ev_41" type="car_ev" depart="1025.00">
        <route edges="961539471 961539472 236811148 236811149#0 1271126935 187938713#0 287311357#0 27348585#0 61316915"/>
    </vehicle>
    <vehicle id="car_ev_42" type="car_ev" depart="1050.00">
        <route edges="61316958 236818221#0 224821293#2 1232799370 1232799371#2 1232799371#4"/>
    </vehicle>
    <vehicle id="car_ev_43" type="car_ev" depart="1075.00">
        <route edges="236818215 236818214 187938710#0 27348585#0 61316915 187938712 287311363#0 1348067247 1348067246#0"/>
    </vehicle>
    <vehicle id="car_ev_44" type="car_ev" depart="1100.00">
        <route edges="227216231#0 236818215 236818214 161297931#0 432309716#0 287956206#2 1271126935 169400610#0 224821292#0 1147624737#0"/>
    </vehicle>
    <vehicle id="car_ev_45" type="car_ev" depart="1125.00">
        <route edges="187938710#0 27348585#0 61316915 187938712 287311363#0 1348067247 1348067246#0 287311364 27476746 291941452 942711943 1347887395 255904385#0 61316958 236818220#0 287956206#2"/>
    </vehicle>
    <vehicle id="car_ev_46" type="car_ev" depart="1150.00">
        <route edges="961539471 961539472"/>
    </vehicle>
    <vehicle id="car_ev_47" type="car_ev" depart="1175.00">
        <route edges="1362019277 1362020490"/>
    </vehicle>
    <vehicle id="car_ev_48" type="car_ev" depart="1200.00">
        <route edges="961539471 961539472 236811148 153776637#0 224821293#2 1232799370 1232799371#2 1232799371#4 277203712 236809165"/>
    </vehicle>
    <vehicle id="car_ev_49" type="car_ev" depart="1225.00">
        <route edges="1232799371#4 277203712 236809165"/>
    </vehicle>
    <vehicle id="car_ev_50" type="car_ev" depart="1250.00">
        <route edges="1271126935"/>
    </vehicle>
    <vehicle id="car_ev_51" type="car_ev" depart="1275.00">
        <route edges="236811148 153776637#0 224821293#2 1232799370 1232799371#2 1232799371#4 277203712 236809165"/>
    </vehicle>
    <vehicle id="car_ev_52" type="car_ev" depart="1300.00">
        <route edges="161297934 1362019276 29092803 942711932#0 61316958 236818220#0 287956206#2 1271126935 187938713#0 287311357#0 27348585#0"/>
    </vehicle>
    <vehicle id="car_ev_53" type="car_ev" depart="1325.00">
        <route edges="29114711#0.184 1362017843 1362017842.95 196662201 942711933 196664103 1362019277 1362020490"/>
    </vehicle>
    <vehicle id="car_ev_54" type="car_ev" depart="1350.00">
        <route edges="E1"/>
    </vehicle>
    <vehicle id="car_ev_55" type="car_ev" depart="1375.00">
        <route edges="1271126935 187938713#0 287311357#0 27348585#0 61316915 187938712 287311363#0 1348067247 1348067246#0"/>
    </vehicle>
    <vehicle id="car_ev_56" type="car_ev" depart="1400.00">
        <route edges="187938710#0 27348585#0 61316915 187938712 287311363#0 1348067247 1348067246#0 287311364 27476746 291941452 942711943 1347887395 255904385#0 61316958"/>
    </vehicle>
    <vehicle id="car_ev_57" type="car_ev" depart="1425.00">
        <route edges="942711942 1232964862 1232964863 287311364 27476746 291941452 942711943 1347887395 255904385#0 61316958 236818220#0 287956206#2 1451328237#0 E1 1323631883 430532793.85 430532793.85.34 430532793.85.34.10 430532795"/>
    </vehicle>
    <vehicle id="car_ev_58" type="car_ev" depart="1450.00">
        <route edges="61293002 61293002.258 236825276 291941452 291941449 1232964862 27476764#0 -1348067248 61295588#0 25126523 1362019277 1362020490"/>
    </vehicle>
    <vehicle id="car_ev_59" type="car_ev" depart="1475.00">
        <route edges="287956206#2 1271126935 187938713#0 287311357#0 27348585#0 61316915 187938712 287311363#0 1348067247 1348067246#0 287311364 27476746 291941452 942711943 1347887395 255904385#0 61316958"/>
    </vehicle>
    <vehicle id="car_ev_60" type="car_ev" depart="1500.00">
        <route edges="1362017843 1362017842.95 313992354#0 313992354#1 1362017841 153776638#0 224821292#0 1147624737#0 1147624737#1"/>
    </vehicle>
    <vehicle id="car_ev_61" type="car_ev" depart="1525.00">
        <route edges="1362017841 313992351#0 287311357#0 169400609#0 224821293#2 1232799370 1232799371#2 1232799371#4 277203712 236809165"/>
    </vehicle>
    <vehicle id="car_ev_62" type="car_ev" depart="1550.00">
        <route edges="313992351#0 287311357#0 432309716#0 287956206#2 1451328237#0 E1 1323631883"/>
    </vehicle>
    <vehicle id="car_ev_63" type="car_ev" depart="1575.00">
        <route edges="236818215 236818214 161297931#0 432309716#0"/>
    </vehicle>
    <vehicle id="car_ev_64" type="car_ev" depart="1600.00">
        <route edges="61316915 187938712 287311363#0 1348067247 1348067246#0 287311364 27476746 291941452 942711943 1347887395 255904385#0 61316958 236818220#0 287956206#2 1271126935 169400610#0 224821292#0 1147624737#0 1147624737#1"/>
    </vehicle>
    <vehicle id="car_ev_65" type="car_ev" depart="1625.00">
        <route edges="236811148 236811149#0 1271126935 187938713#0 287311357#0 27348585#0 61316915 287956205 25126523 1362019277 1362020490"/>
    </vehicle>
    <vehicle id="car_ev_66" type="car_ev" depart="1650.00">
        <route edges="236811149#0 1271126935 187938713#0 287311357#0 27348585#0 61316915 187938712 287311363#0 1348067247 1348067246#0 287311364 236825277 -1316855122#3"/>
    </vehicle>
    <vehicle id="car_ev_67" type="car_ev" depart="1675.00">
        <route edges="1271126935 187938713#0 287311357#0 432309716#0 287956206#2 1451328237#0 E1 1323631883 430532793.85 430532793.85.34 430532793.85.34.10 430532795"/>
    </vehicle>
    <vehicle id="car_ev_68" type="car_ev" depart="1700.00">
        <route edges="961539471 961539472 236811148 153776637#0 224821293#2 1232799370 1232799371#2 1232799371#4 277203712 236809165"/>
    </vehicle>
    <vehicle id="car_ev_69" type="car_ev" depart="1725.00">
        <route edges="1362019276 29092803 942711932#0 61316958 236818220#0 287956206#2 1271126935 169400610#0 224821292#0 1147624737#0 1147624737#1"/>
    </vehicle>
    <vehicle id="car_ev_70" type="car_ev" depart="1750.00">
        <route edges="200568455#0 227216231#0 236818215 236818214 161297931#0 432309716#0 287956206#2 1451328237#0 E1 1323631883 430532793.85 430532793.85.34 430532793.85.34.10 430532795"/>
    </vehicle>
    <vehicle id="car_ev_71" type="car_ev" depart="1775.00">
        <route edges="432309716#0 287956206#2 1451328237#0 E1 1323631883 430532793.85 430532793.85.34 430532793.85.34.10 430532795"/>
    </vehicle>
    <vehicle id="car_ev_72" type="car_ev" depart="1800.00">
        <route edges="961539471 961539472 236811148 236811149#0 1271126935 187938713#0 287311357#0 27348585#0 61316915 187938712 287311363#0 1348067247 1348067246#0"/>
    </vehicle>
    <vehicle id="car_ev_73" type="car_ev" depart="1825.00">
        <route edges="169400610#0 224821292#0 1147624737#0 1147624737#1"/>
    </vehicle>
    <vehicle id="car_ev_74" type="car_ev" depart="1850.00">
        <route edges="430532793.85.34 430532793.85.34.10 430532795"/>
    </vehicle>
    <vehicle id="car_ev_75" type="car_ev" depart="1875.00">
        <route edges="236811148 236811149#0"/>
    </vehicle>
    <vehicle id="car_ev_76" type="car_ev" depart="1900.00">
        <route edges="61293002 61293002.258 236825276 291941452 942711943 1347887395 255904385#0 61316958 236818220#0 287956206#2 1451328237#0 E1 1323631883 430532793.85 430532793.85.34 430532793.85.34.10 430532795"/>
    </vehicle>
    <vehicle id="car_ev_77" type="car_ev" depart="1925.00">
        <route edges="200568455#0 227216231#0 236818215 236818214 187938710#0 27348585#0 61316915 187938712 287311363#0 1348067247 1348067246#0 287311364 27476746 291941452 942711943 1347887395 255904385#0 61316958"/>
    </vehicle>
    <vehicle id="car_ev_78" type="car_ev" depart="1950.00">
        <route edges="432309716#0 287956206#2 1451328237#0 E1 1323631883 430532793.85 430532793.85.34 430532793.85.34.10 430532795"/>
    </vehicle>
    <vehicle id="car_ev_79" type="car_ev" depart="1975.00">
        <route edges="61293002 61293002.258 236825276 291941452 291941449 1232964862 27476764#0 -1348067248 61295588#0 25126523 1362019277"/>
    </vehicle>
    <vehicle id="car_ev_80" type="car_ev" depart="2000.00">
        <route edges="942711932#0 61316958 236818220#0 287956206#2 1451328237#0 E1 1323631883 430532793.85 430532793.85.34 430532793.85.34.10 430532795"/>
    </vehicle>
    <vehicle id="car_ev_81" type="car_ev" depart="2025.00">
        <route edges="236818214 187938710#0 27348585#0 61316915 287956205 25126523 1362019277 1362020490"/>
    </vehicle>
    <vehicle id="car_ev_82" type="car_ev" depart="2050.00">
        <route edges="200568455#0 227216231#0 236818215 236818214 161297931#0 432309716#0 287956206#2 1451328237#0 E1 1323631883 430532793.85 430532793.85.34 430532793.85.34.10 430532795"/>
    </vehicle>
    <vehicle id="car_ev_83" type="car_ev" depart="2075.00">
        <route edges="961539471 961539472 236811148 236811149#0 1271126935 187938713#0 287311357#0 27348585#0 61316915 287956205 25126523 1362019277 1362020490"/>
    </vehicle>
    <vehicle id="car_ev_84" type="car_ev" depart="2100.00">
        <route edges="287311357#0 432309716#0 287956206#2 1271126935 187938713#0"/>
    </vehicle>
    <vehicle id="car_ev_85" type="car_ev" depart="2125.00">
        <route edges="961539472 236811148 153776637#0 224821293#2 1232799370 1232799371#2 1232799371#4 277203712 236809165"/>
    </vehicle>
    <vehicle id="car_ev_86" type="car_ev" depart="2150.00">
        <route edges="961539471 961539472 236811148 236811149#0 1271126935 169400610#0 224821292#0 1147624737#0 1147624737#1"/>
    </vehicle>
    <vehicle id="car_ev_87" type="car_ev" depart="2175.00">
        <route edges="961539471 961539472 236811148 236811149#0 1271126935"/>
    </vehicle>
    <vehicle id="car_ev_88" type="car_ev" depart="2200.00">
        <route edges="961539471 961539472 236811148 236811149#0 1271126935 187938713#0 287311357#0 27348585#0 61316915 287956205 25126523 1362019277"/>
    </vehicle>
    <vehicle id="car_ev_89" type="car_ev" depart="2225.00">
        <route edges="313992354#0 313992354#1 1362017841 313992351#0 287311357#0 27348585#0 61316915 287956205 25126523 1362019277 1362020490"/>
    </vehicle>
    <vehicle id="car_ev_90" type="car_ev" depart="2250.00">
        <route edges="224821293#2 1232799370 1232799371#2 1232799371#4 277203712 236809165"/>
    </vehicle>
    <vehicle id="car_ev_91" type="car_ev" depart="2275.00">
        <route edges="27348585#0"/>
    </vehicle>
    <vehicle id="car_ev_92" type="car_ev" depart="2300.00">
        <route edges="224821292#0 1147624737#0 1147624737#1"/>
    </vehicle>
    <vehicle id="car_ev_93" type="car_ev" depart="2325.00">
        <route edges="200568455#0 227216231#0 236818215 236818214 161297931#0 432309716#0 287956206#2 1451328237#0 E1 1323631883 430532793.85 430532793.85.34 430532793.85.34.10"/>
    </vehicle>
    <vehicle id="car_ev_94" type="car_ev" depart="2350.00">
        <route edges="313992351#0 287311357#0 27348585#0 61316915 287956205 25126523 1362019277 1362020490"/>
    </vehicle>
    <vehicle id="car_ev_95" type="car_ev" depart="2375.00">
        <route edges="236811148 236811149#0 1271126935 187938713#0 287311357#0 27348585#0 61316915 287956205 25126523 1362019277 1362020490"/>
    </vehicle>
    <vehicle id="car_ev_96" type="car_ev" depart="2400.00">
        <route edges="961539471 961539472 236811148 236811149#0 1271126935 187938713#0 287311357#0 27348585#0 61316915 187938712 287311363#0 1348067247 1348067246#0 287311364 27476746 291941452 942711943 1347887395 255904385#0 61316958 236818220#0"/>
    </vehicle>
    <vehicle id="car_ev_97" type="car_ev" depart="2425.00">
        <route edges="961539471 961539472 236811148 236811149#0"/>
    </vehicle>
    <vehicle id="car_ev_98" type="car_ev" depart="2450.00">
        <route edges="200568455#0 227216231#0 236818215 236818214 187938710#0 169400609#0 224821293#2 1232799370 1232799371#2 1232799371#4 277203712 236809165"/>
    </vehicle>
    <vehicle id="car_ev_99" type="car_ev" depart="2475.00">
        <route edges="-1348067248 61295588#0 25126523 1362019277 1362020490"/>
    </vehicle>
    <vehicle id="car_ev_100" type="car_ev" depart="2500.00">
        <route edges="236811149#0 1271126935 187938713#0 287311357#0 169400609#0 224821293#2 1232799370 1232799371#2 1232799371#4 277203712 236809165"/>
    </vehicle>
    <vehicle id="car_ev_101" type="car_ev" depart="2525.00">
        <route edges="236811149#0 1271126935 187938713#0 287311357#0 27348585#0 61316915 187938712 287311363#0 1348067247 1348067246#0"/>
    </vehicle>
    <vehicle id="car_ev_102" type="car_ev" depart="2550.00">
        <route edges="236818214 161297931#0 432309716#0"/>
    </vehicle>
    <vehicle id="car_ev_103" type="car_ev" depart="2575.00">
        <route edges="432309716#0 287956206#2 1271126935 187938713#0 287311357#0 169400609#0 224821293#2 1232799370 1232799371#2 1232799371#4"/>
    </vehicle>
    <vehicle id="car_ev_104" type="car_ev" depart="2600.00">
        <route edges="29114711#0.184 1362017843 1362017842.95 313992354#0 313992354#1 1362017841"/>
    </vehicle>
    <vehicle id="car_ev_105" type="car_ev" depart="2625.00">
        <route edges="161297934 1362019276 29092803 432309717 -27476683 942711942 1232964862 27476764#0 -1348067248"/>
    </vehicle>
    <vehicle id="car_ev_106" type="car_ev" depart="2650.00">
        <route edges="61316958 236818220#0 287956206#2 1271126935 169400610#0 224821292#0 1147624737#0 1147624737#1"/>
    </vehicle>
    <vehicle id="car_ev_107" type="car_ev" depart="2675.00">
        <route edges="236811148 236811149#0"/>
    </vehicle>
    <vehicle id="car_ev_108" type="car_ev" depart="2700.00">
        <route edges="241159845 1323631883 430532793.85 430532793.85.34 430532793.85.34.10 -407552210#1"/>
    </vehicle>
    <vehicle id="car_ev_109" type="car_ev" depart="2725.00">
        <route edges="961539471 961539472 236811148 236811149#0"/>
    </vehicle>
    <vehicle id="car_ev_110" type="car_ev" depart="2750.00">
        <route edges="313992351#0 287311357#0 169400609#0 224821293#2"/>
    </vehicle>
    <vehicle id="car_ev_111" type="car_ev" depart="2775.00">
        <route edges="61293002.258 236825276 291941452 942711943 1347887395 255904385#0 61316958 236818221#0 224821293#2 1232799370 1232799371#2 1232799371#4 277203712 236809165"/>
    </vehicle>
    <vehicle id="car_ev_112" type="car_ev" depart="2800.00">
        <route edges="961539471 961539472 236811148 153776637#0 224821293#2 1232799370 1232799371#2 1232799371#4 277203712"/>
    </vehicle>
    <vehicle id="car_ev_113" type="car_ev" depart="2825.00">
        <route edges="1271126935 187938713#0 287311357#0 27348585#0 61316915 287956205 25126523 1362019277 1362020490"/>
    </vehicle>
    <vehicle id="car_ev_114" type="car_ev" depart="2850.00">
        <route edges="187938710#0 27348585#0 61316915 187938712 287311363#0 1348067247 1348067246#0 287311364 27476746 291941452 942711943 1347887395 255904385#0 61316958 236818220#0 287956206#2 1451328237#0"/>
    </vehicle>
    <vehicle id="car_ev_115" type="car_ev" depart="2875.00">
        <route edges="27348585#0 61316915 187938712 287311363#0 1348067247 1348067246#0 287311364 27476746 291941452 942711943 1347887395 255904385#0 61316958 236818221#0 224821293#2 1232799370"/>
    </vehicle>
    <vehicle id="car_ev_116" type="car_ev" depart="2900.00">
        <route edges="29114711#0.184 1362017843 1362017842.95 313992354#0 313992354#1 1362017841 153776638#0 224821292#0 1147624737#0"/>
    </vehicle>
    <vehicle id="car_ev_117" type="car_ev" depart="2925.00">
        <route edges="236811148 153776637#0 224821293#2 1232799370 1232799371#2 1232799371#4 277203712 236809165"/>
    </vehicle>
    <vehicle id="car_ev_118" type="car_ev" depart="2950.00">
        <route edges="236811148 236811149#0 1271126935 187938713#0 287311357#0 27348585#0 61316915 187938712 287311363#0 1348067247 1348067246#0 287311364 27476746 291941452 942711943 1347887395"/>
    </vehicle>
    <vehicle id="car_ev_119" type="car_ev" depart="2975.00">
        <route edges="236811148 236811149#0 1271126935 187938713#0 287311357#0 432309716#0"/>
    </vehicle>
    <vehicle id="car_ev_120" type="car_ev" depart="3000.00">
        <route edges="61316958 236818220#0 287956206#2 1271126935 187938713#0 287311357#0"/>
    </vehicle>
    <vehicle id="car_ev_121" type="car_ev" depart="3025.00">
        <route edges="200568455#0 227216231#0 236818215 236818214 187938710#0 27348585#0 61316915 187938712 287311363#0 1348067247 1348067246#0 287311364 27476746 291941452 942711943 1347887395 255904385#0 61316958 236818220#0"/>
    </vehicle>
    <vehicle id="car_ev_122" type="car_ev" depart="3050.00">
        <route edges="236811148 153776637#0 224821293#2 1232799370 1232799371#2 1232799371#4"/>
    </vehicle>
    <vehicle id="car_ev_123" type="car_ev" depart="3075.00">
        <route edges="236818214 161297931#0 432309716#0 287956206#2 1271126935 169400610#0 224821292#0 1147624737#0 1147624737#1"/>
    </vehicle>
    <vehicle id="car_ev_124" type="car_ev" depart="3100.00">
        <route edges="227216231#0 236818215 236818214 187938710#0 169400609#0 224821293#2 1232799370 1232799371#2 1232799371#4 277203712 236809165"/>
    </vehicle>
    <vehicle id="car_ev_125" type="car_ev" depart="3125.00">
        <route edges="169400610#0 224821292#0 1147624737#0 1147624737#1"/>
    </vehicle>
    <vehicle id="car_ev_126" type="car_ev" depart="3150.00">
        <route edges="287311363#0 1348067247 1348067246#0 287311364 27476746 291941452 942711943 1347887395 255904385#0 61316958 236818220#0 287956206#2 1271126935 187938713#0 287311357#0 27348585#0 61316915 287956205"/>
    </vehicle>
    <vehicle id="car_ev_127" type="car_ev" depart="3175.00">
        <route edges="961539471 961539472 236811148 236811149#0 1451328237#0 E1 1323631883"/>
    </vehicle>
    <vehicle id="car_ev_128" type="car_ev" depart="3200.00">
        <route edges="29114711#0.184 1362017843 1362017842.95 313992354#0 313992354#1 1362017841 313992351#0 287311357#0"/>
    </vehicle>
    <vehicle id="car_ev_129" type="car_ev" depart="3225.00">
        <route edges="1362017841 313992351#0 287311357#0 27348585#0 61316915 187938712 287311363#0 1348067247 1348067246#0 287311364 27476746 291941452 291941449 1232964862 27476764#0 -1348067248"/>
    </vehicle>
    <vehicle id="car_ev_130" type="car_ev" depart="3250.00">
        <route edges="200568455#0 227216231#0 236818215 236818214 187938710#0 27348585#0 61316915 187938712 287311363#0 1348067247 1348067246#0 287311364 27476746 291941452 942711943 1347887395 255904385#0 61316958 236818220#0"/>
    </vehicle>
    <vehicle id="car_ev_131" type="car_ev" depart="3275.00">
        <route edges="961539471 961539472 236811148 236811149#0 1271126935 187938713#0"/>
    </vehicle>
    <vehicle id="car_ev_132" type="car_ev" depart="3300.00">
        <route edges="313992351#0 287311357#0 432309716#0 287956206#2 1271126935 169400610#0 224821292#0 1147624737#0 1147624737#1"/>
    </vehicle>
    <vehicle id="car_ev_133" type="car_ev" depart="3325.00">
        <route edges="1348067246#0 287311364 27476746 291941452 942711943 1347887395 255904385#0 61316958 236818220#0 287956206#2 1271126935 187938713#0 287311357#0 27348585#0 61316915 187938712 287311363#0"/>
    </vehicle>
    <vehicle id="car_ev_134" type="car_ev" depart="3350.00">
        <route edges="236811149#0 1271126935 169400610#0"/>
    </vehicle>