<?xml version="1.0" encoding="UTF-8"?>

<!-- generated on 2026-03-14T20:45:19.051009+01:00 by Eclipse SUMO netedit 1.26.0
-->

<routes xmlns:xsi="http://www.w3.org/2001/XMLSchema-instance" xsi:noNamespaceSchemaLocation="http://sumo.dlr.de/xsd/routes_file.xsd">
    <!-- VTypes -->
    <vType id="car" length="5.00" maxSpeed="44.44" vClass="passenger" emissionClass="HBEFA3/PC_G_EU4" guiShape="passenger" color="white" lcStrategic="0.5" lcSpeedGain="3.5" lcAssertive="1.5" accel="2.6" decel="4.5" sigma="0.5"/>
    <!-- Vehicles, persons and containers (sorted by depart) -->
    <vehicle id="car_1" type="car" depart="1.50" departLane="free" departSpeed="max">
        <route edges="200568455#0 227216231#0 236818215 236818214 161297931#0 432309716#0 287956206#2 1271126935 169400610#0 771467599#0 224821292#0 1147624737#0 1147624737#1"/>
    </vehicle>
    <vehicle id="car_2" type="car" depart="3.00" departLane="free" departSpeed="max">
        <route edges="942711943 1347887395 255904385#0 61316958 236818220#0 287956206#2 1271126935 187938713#0 287311357#0 27348585#0 61316915 187938712 287311363#0 1348067247 1348067246#0 287311364 27476746 291941452 291941449 1232964862 27476764#0 -1348067248"/>
    </vehicle>
    <vehicle id="car_3" type="car" depart="4.50" departLane="free" departSpeed="max">
        <route edges="27348585#0 61316915 187938712 287311363#0 1348067247 1348067246#0 287311364 236825277 -1316855122#3"/>
    </vehicle>
    <vehicle id="car_4" type="car" depart="6.00" departLane="free" departSpeed="max">
        <route edges="61293002 61293002.258 236825276 291941452 291941449 1232964862 1232964863 287311364 236825277 -1316855122#3"/>
    </vehicle>
    <vehicle id="car_5" type="car" depart="7.50" departLane="free" departSpeed="max">
        <route edges="61293002.258 236825276 291941452 942711943 1347887395 255904385#0 61316958 236818221#0 224821293#2"/>
    </vehicle>
    <vehicle id="car_6" type="car" depart="9.00" departLane="free" departSpeed="max">
        <route edges="61293002 61293002.258 236825276 291941452 942711943 1347887395 255904385#0 61316958 236818221#0"/>
    </vehicle>
    <vehicle id="car_7" type="car" depart="10.50" departLane="free" departSpeed="max">
        <route edges="287311363#0 1348067247 1348067246#0 287311364 27476746 291941452 942711943"/>
    </vehicle>
    <vehicle id="car_8" type="car" depart="12.00" departLane="free" departSpeed="max">
        <route edges="61293002 61293002.258 236825276 291941452 942711943 1347887395 255904385#0 61316958 236818221#0 224821293#2 1232799370 1232799371#2 1232799371#4 277203712 236809165"/>
    </vehicle>
    <vehicle id="car_9" type="car" depart="13.50" departLane="free" departSpeed="max">
        <route edges="187938712 287311363#0 1348067247 1348067246#0 287311364 27476746 291941452 942711943 1347887395 255904385#0 61316958 236818221#0 224821293#2 1232799370 1232799371#2 1232799371#4"/>
    </vehicle>
    <vehicle id="car_12" type="car" depart="18.00" departLane="free" departSpeed="max">
        <route edges="236811149#0 1271126935 169400610#0 771467599#0 224821292#0 1147624737#0 1147624737#1"/>
    </vehicle>
    <vehicle id="car_13" type="car" depart="19.50" departLane="free" departSpeed="max">
        <route edges="200568455#0 227216231#0 236818215 236818214 187938710#0 27348585#0 61316915 187938712 287311363#0 1348067247 1348067246#0 287311364 27476746 291941452 291941449 1232964862 27476764#0 -1348067248 61295588#0"/>
    </vehicle>
    <vehicle id="car_14" type="car" depart="21.00" departLane="free" departSpeed="max">
        <route edges="161297934 1362019276 29092803 942711932#0 61316958 236818221#0"/>
    </vehicle>
    <vehicle id="car_15" type="car" depart="22.50" departLane="free" departSpeed="max">
        <route edges="161297934 1362019276 29092803 942711932#0 61316958 236818220#0 287956206#2 1271126935 187938713#0 287311357#0 27348585#0 61316915 287956205 25126523 1362019277 1362020490"/>
    </vehicle>
    <vehicle id="car_17" type="car" depart="25.50" departLane="free" departSpeed="max">
        <route edges="187938712 287311363#0 1348067247 1348067246#0 287311364 236825277 -1316855122#3"/>
    </vehicle>
    <vehicle id="car_18" type="car" depart="27.00" departLane="free" departSpeed="max">
        <route edges="200568455#0 227216231#0 236818215 236818214 161297931#0 432309716#0 287956206#2 1271126935 169400610#0 771467599#0 224821292#0 1147624737#0 1147624737#1"/>
    </vehicle>
    <vehicle id="car_19" type="car" depart="28.50" departLane="free" departSpeed="max">
        <route edges="942711932#0 61316958 236818220#0 287956206#2 1271126935 187938713#0 287311357#0 27348585#0 61316915 187938712 287311363#0 1348067247"/>
    </vehicle>
    <vehicle id="car_21" type="car" depart="31.50" departLane="free" departSpeed="max">
        <route edges="200568455#0 227216231#0 236818215 236818214 161297931#0 432309716#0 287956206#2 1271126935 169400610#0 771467599#0 224821292#0 1147624737#0 1147624737#1"/>
    </vehicle>
    <vehicle id="car_24" type="car" depart="36.00" departLane="free" departSpeed="max">
        <route edges="61293002 61293002.258 236825276 291941452 291941449 1232964862 27476764#0 -1348067248 61295588#0 25126523 1362019277 1362020490"/>
    </vehicle>
    <vehicle id="car_25" type="car" depart="37.50" departLane="free" departSpeed="max">
        <route edges="1348067247 1348067246#0 287311364 27476746 291941452 291941449 1232964862 27476764#0 -1348067248 61295588#0 25126523 1362019277 1362020490"/>
    </vehicle>
    <vehicle id="car_27" type="car" depart="40.50" departLane="free" departSpeed="max">
        <route edges="200568455#0 227216231#0 236818215 236818214 187938710#0 169400609#0 224821293#0 224821293#2 1232799370 1232799371#2 1232799371#4 277203712 236809165"/>
    </vehicle>
    <vehicle id="car_28" type="car" depart="42.00" departLane="free" departSpeed="max">
        <route edges="942711932#0 61316958 236818220#0 287956206#2 1271126935 169400610#0 771467599#0 224821292#0 1147624737#0 1147624737#1"/>
    </vehicle>
    <vehicle id="car_30" type="car" depart="45.00" departLane="free" departSpeed="max">
        <route edges="200568455#0 227216231#0 236818215 236818214 187938710#0 169400609#0 224821293#0 224821293#2 1232799370 1232799371#2 1232799371#4 277203712 236809165"/>
    </vehicle>
    <vehicle id="car_32" type="car" depart="48.00" departLane="free" departSpeed="max">
        <route edges="200568455#0 227216231#0 236818215 236818214 187938710#0 27348585#0 61316915 187938712 287311363#0 1348067247 1348067246#0 287311364 236825277 -1316855122#3"/>
    </vehicle>
    <vehicle id="car_33" type="car" depart="49.50" departLane="free" departSpeed="max">
        <route edges="1362019276 29092803 942711932#0 61316958 236818220#0 287956206#2 1271126935 187938713#0"/>
    </vehicle>
    <vehicle id="car_36" type="car" depart="54.00" departLane="free" departSpeed="max">
        <route edges="277203721 277203724 200568452#0"/>
    </vehicle>
    <vehicle id="car_38" type="car" depart="57.00" departLane="free" departSpeed="max">
        <route edges="27348585#0 61316915 187938712 287311363#0 1348067247 1348067246#0 287311364 27476746 291941452 942711943 1347887395 255904385#0 61316958 236818220#0 287956206#2 1271126935 169400610#0 771467599#0 224821292#0 1147624737#0 1147624737#1"/>
    </vehicle>
    <vehicle id="car_39" type="car" depart="58.50" departLane="free" departSpeed="max">
        <route edges="287311363#0 1348067247 1348067246#0 287311364 27476746 291941452 942711943 1347887395 255904385#0 61316958 236818221#0"/>
    </vehicle>
    <vehicle id="car_40" type="car" depart="60.00" departLane="free" departSpeed="max">
        <route edges="161297934 1362019276 29092803 942711932#0 61316958 236818220#0 287956206#2 1271126935 187938713#0 287311357#0 27348585#0 61316915 187938712 287311363#0 1348067247 1348067246#0"/>
    </vehicle>
    <vehicle id="car_42" type="car" depart="63.00" departLane="free" departSpeed="max">
        <route edges="161297931#0 432309716#0 287956206#2 1271126935 169400610#0 771467599#0 224821292#0 1147624737#0 1147624737#1"/>
    </vehicle>
    <vehicle id="car_43" type="car" depart="64.50" departLane="free" departSpeed="max">
        <route edges="187938712 287311363#0 1348067247 1348067246#0 287311364 27476746 291941452 942711943 1347887395 255904385#0 61316958 236818220#0 287956206#2 1271126935 169400610#0 771467599#0 224821292#0 1147624737#0 1147624737#1"/>
    </vehicle>
    <vehicle id="car_46" type="car" depart="69.00" departLane="free" departSpeed="max">
        <route edges="61316958 236818220#0 287956206#2 1271126935 187938713#0 287311357#0 27348585#0 61316915 187938712 287311363#0 1348067247 1348067246#0 287311364 236825277 -1316855122#3"/>
    </vehicle>
    <vehicle id="car_48" type="car" depart="72.00" departLane="free" departSpeed="max">
        <route edges="61293002 61293002.258 236825276 291941452 942711943 1347887395 255904385#0 61316958 236818220#0 287956206#2 1271126935 169400610#0 771467599#0 224821292#0 1147624737#0"/>
    </vehicle>
    <vehicle id="car_49" type="car" depart="73.50" departLane="free" departSpeed="max">
        <route edges="27348585#0 61316915 187938712 287311363#0 1348067247 1348067246#0 287311364 27476746 291941452 942711943 1347887395 255904385#0 61316958 236818220#0 287956206#2 1271126935 169400610#0"/>
    </vehicle>
    <vehicle id="car_50" type="car" depart="75.00" departLane="free" departSpeed="max">
        <route edges="61316958 236818220#0 287956206#2 1271126935 169400610#0 771467599#0 224821292#0 1147624737#0 1147624737#1"/>
    </vehicle>
    <vehicle id="car_51" type="car" depart="76.50" departLane="free" departSpeed="max">
        <route edges="27348585#0 61316915 187938712 287311363#0 1348067247 1348067246#0 287311364 27476746 291941452 942711943 1347887395 255904385#0 61316958 236818221#0 224821293#2 1232799370"/>
    </vehicle>
    <vehicle id="car_52" type="car" depart="78.00" departLane="free" departSpeed="max">
        <route edges="287956206#2 1271126935 187938713#0 287311357#0 27348585#0 61316915 187938712 287311363#0 1348067247 1348067246#0 287311364 236825277 -1316855122#3"/>
    </vehicle>
    <vehicle id="car_54" type="car" depart="81.00" departLane="free" departSpeed="max">
        <route edges="236825277 -1316855122#3"/>
    </vehicle>
    <vehicle id="car_55" type="car" depart="82.50" departLane="free" departSpeed="max">
        <route edges="200568455#0 227216231#0 236818215 236818214 161297931#0 432309716#0 287956206#2 1271126935 187938713#0 287311357#0"/>
    </vehicle>
    <vehicle id="car_57" type="car" depart="85.50" departLane="free" departSpeed="max">
        <route edges="161297934 1362019276 29092803 942711932#0 61316958 236818220#0 287956206#2 1271126935"/>
    </vehicle>
    <vehicle id="car_58" type="car" depart="87.00" departLane="free" departSpeed="max">
        <route edges="287956205 25126523"/>
    </vehicle>
    <vehicle id="car_62" type="car" depart="93.00" departLane="free" departSpeed="max">
        <route edges="942711943 1347887395 255904385#0 61316958 236818220#0 287956206#2 1271126935 169400610#0 771467599#0 224821292#0 1147624737#0 1147624737#1"/>
    </vehicle>
    <vehicle id="car_64" type="car" depart="96.00" departLane="free" departSpeed="max">
        <route edges="196662201 942711933 196664103 1362019277 1362020490"/>
    </vehicle>
    <vehicle id="car_65" type="car" depart="97.50" departLane="free" departSpeed="max">
        <route edges="200568455#0 227216231#0 236818215 236818214 187938710#0 27348585#0 61316915 287956205 25126523"/>
    </vehicle>
    <vehicle id="car_67" type="car" depart="100.50" departLane="free" departSpeed="max">
        <route edges="1362017843 1362017842.95 313992354#0 313992354#1 1362017841 153776638#0 153776638#0.87 224821292#0 1147624737#0 1147624737#1"/>
    </vehicle>
    <vehicle id="car_68" type="car" depart="102.00" departLane="free" departSpeed="max">
        <route edges="200568455#0 227216231#0 236818215 236818214 187938710#0 27348585#0 61316915 187938712 287311363#0 1348067247 1348067246#0 287311364 27476746 291941452 291941449 1232964862 27476764#0 -1348067248 61295588#0"/>
    </vehicle>
    <vehicle id="car_71" type="car" depart="106.50" departLane="free" departSpeed="max">
        <route edges="61293002 61293002.258 236825276 291941452 942711943 1347887395 255904385#0 61316958 236818220#0 287956206#2 1451328237#0 E1 1323631883"/>
    </vehicle>
    <vehicle id="car_73" type="car" depart="109.50" departLane="free" departSpeed="max">
        <route edges="200568455#0 227216231#0 236818215 236818214 187938710#0 169400609#0 224821293#0 224821293#2"/>
    </vehicle>
    <vehicle id="car_75" type="car" depart="112.50" departLane="free" departSpeed="max">
        <route edges="27348585#0 61316915 187938712 287311363#0 1348067247 1348067246#0 287311364 27476746 291941452 942711943 1347887395 255904385#0 61316958 236818221#0 224821293#2 1232799370"/>
    </vehicle>
    <vehicle id="car_81" type="car" depart="121.50" departLane="free" departSpeed="max">
        <route edges="961539471 961539472 236811148 236811149#0 1271126935 169400610#0 771467599#0 224821292#0 1147624737#0 1147624737#1"/>
    </vehicle>
    <vehicle id="car_83" type="car" depart="124.50" departLane="free" departSpeed="max">
        <route edges="61316958 236818220#0 287956206#2 1271126935 187938713#0 287311357#0 27348585#0 61316915 187938712 287311363#0 1348067247 1348067246#0 287311364 27476746 291941452 942711943"/>
    </vehicle>
    <vehicle id="car_86" type="car" depart="129.00" departLane="free" departSpeed="max">
        <route edges="61293002 61293002.258 236825276 291941452 942711943 1347887395 255904385#0 61316958 236818220#0 287956206#2 1271126935 169400610#0 771467599#0 224821292#0 1147624737#0 1147624737#1"/>
    </vehicle>
    <vehicle id="car_89" type="car" depart="133.50" departLane="free" departSpeed="max">
        <route edges="61293002 61293002.258 236825276 291941452 942711943 1347887395 255904385#0 61316958 236818220#0 287956206#2 1271126935 169400610#0 771467599#0 224821292#0 1147624737#0 1147624737#1"/>
    </vehicle>
    <vehicle id="car_91" type="car" depart="136.50" departLane="free" departSpeed="max">
        <route edges="961539471 961539472 236811148 153776637#0 E0 224821293#2 1232799370"/>
    </vehicle>
    <vehicle id="car_95" type="car" depart="142.50" departLane="free" departSpeed="max">
        <route edges="961539471 961539472 236811148 236811149#0 1271126935 169400610#0 771467599#0 224821292#0 1147624737#0 1147624737#1"/>
    </vehicle>
    <vehicle id="car_96" type="car" depart="144.00" departLane="free" departSpeed="max">
        <route edges="200568455#0 227216231#0 236818215 236818214"/>
    </vehicle>
    <vehicle id="car_97" type="car" depart="145.50" departLane="free" departSpeed="max">
        <route edges="287311363#0 1348067247 1348067246#0 287311364 27476746 291941452 942711943 1347887395 255904385#0 61316958 236818220#0"/>
    </vehicle>
    <vehicle id="car_98" type="car" depart="147.00" departLane="free" departSpeed="max">
        <route edges="236811148 236811149#0 1271126935 187938713#0 287311357#0 27348585#0 61316915 187938712 287311363#0 1348067247 1348067246#0 287311364 236825277 -1316855122#3"/>
    </vehicle>
    <vehicle id="car_100" type="car" depart="150.00" departLane="free" departSpeed="max">
        <route edges="200568455#0 227216231#0 236818215 236818214 187938710#0 27348585#0 61316915 287956205 25126523 1362019277 1362020490"/>
    </vehicle>
    <vehicle id="car_101" type="car" depart="151.50" departLane="free" departSpeed="max">
        <route edges="161297934 1362019276 29092803 942711932#0 61316958 236818220#0 287956206#2 1271126935 187938713#0 287311357#0 27348585#0 61316915 287956205 25126523 1362019277 1362020490"/>
    </vehicle>
    <vehicle id="car_102" type="car" depart="153.00" departLane="free" departSpeed="max">
        <route edges="961539471 961539472 236811148 153776637#0 E0 224821293#2 1232799370 1232799371#2 1232799371#4 277203712 236809165"/>
    </vehicle>
    <vehicle id="car_103" type="car" depart="154.50" departLane="free" departSpeed="max">
        <route edges="961539471 961539472 236811148 153776637#0 E0 224821293#2 1232799370 1232799371#2 1232799371#4 277203712 236809165"/>
    </vehicle>
    <vehicle id="car_106" type="car" depart="159.00" departLane="free" departSpeed="max">
        <route edges="29114711#0.184 1362017843"/>
    </vehicle>
    <vehicle id="car_107" type="car" depart="160.50" departLane="free" departSpeed="max">
        <route edges="61293002 61293002.258 236825276 291941452 291941449 1232964862 27476764#0 -1348067248 61295588#0 25126523"/>
    </vehicle>
    <vehicle id="car_108" type="car" depart="162.00" departLane="free" departSpeed="max">
        <route edges="161297934 1362019276 29092803 432309717 -27476683 942711942 1232964862 1232964863 287311364 236825277 -1316855122#3"/>
    </vehicle>
    <vehicle id="car_109" type="car" depart="163.50" departLane="free" departSpeed="max">
        <route edges="161297934 1362019276 29092803 942711932#0 61316958 236818221#0 224821293#2 1232799370 1232799371#2 1232799371#4 277203712 236809165"/>
    </vehicle>
    <vehicle id="car_111" type="car" depart="166.50" departLane="free" departSpeed="max" departEdge="0">
        <route edges="432309716#0 287956206#2 1271126935 187938713#0 287311357#0 169400609#0 224821293#0 224821293#2 1232799370 1232799371#2 1232799371#4 277203712"/>
    </vehicle>
    <vehicle id="car_112" type="car" depart="168.00" departLane="free" departSpeed="max">
        <route edges="161297934 1362019276 29092803 942711932#0"/>
    </vehicle>
    <vehicle id="car_114" type="car" depart="171.00" departLane="free" departSpeed="max">
        <route edges="942711943 1347887395 255904385#0 61316958 236818221#0 224821293#2 1232799370 1232799371#2 1232799371#4 277203712 236809165"/>
    </vehicle>
    <vehicle id="car_117" type="car" depart="175.50" departLane="free" departSpeed="max">
        <route edges="200568455#0 227216231#0 236818215 236818214 187938710#0 27348585#0 61316915 187938712 287311363#0 1348067247"/>
    </vehicle>
    <vehicle id="car_118" type="car" depart="177.00" departLane="free" departSpeed="max">
        <route edges="187938713#0 287311357#0 169400609#0 224821293#0 224821293#2 1232799370 1232799371#2 1232799371#4 277203712 236809165"/>
    </vehicle>
    <vehicle id="car_119" type="car" depart="178.50" departLane="free" departSpeed="max">
        <route edges="255904385#0 61316958 236818220#0 287956206#2 1271126935 169400610#0 771467599#0 224821292#0 1147624737#0 1147624737#1"/>
    </vehicle>
    <vehicle id="car_122" type="car" depart="183.00" departLane="free" departSpeed="max">
        <route edges="61316915 187938712 287311363#0 1348067247 1348067246#0 287311364 27476746 291941452 291941449 1232964862 27476764#0"/>
    </vehicle>
    <vehicle id="car_123" type="car" depart="184.50" departLane="free" departSpeed="max">
        <route edges="236818215 236818214 187938710#0 27348585#0 61316915 187938712 287311363#0 1348067247 1348067246#0 287311364 236825277 -1316855122#3"/>
    </vehicle>
    <vehicle id="car_124" type="car" depart="186.00" departLane="free" departSpeed="max">
        <route edges="255904385#0 61316958 236818220#0 287956206#2 1271126935 187938713#0 287311357#0 27348585#0 61316915 287956205 25126523"/>
    </vehicle>
    <vehicle id="car_125" type="car" depart="187.50" departLane="free" departSpeed="max">
        <route edges="287956206#2 1271126935 187938713#0 287311357#0 169400609#0 224821293#0 224821293#2"/>
    </vehicle>
    <vehicle id="car_126" type="car" depart="189.00" departLane="free" departSpeed="max">
        <route edges="187938710#0 27348585#0 61316915 187938712 287311363#0 1348067247 1348067246#0 287311364 27476746 291941452 942711943 1347887395 255904385#0 61316958 236818220#0 287956206#2 1271126935 169400610#0 771467599#0 224821292#0 1147624737#0 1147624737#1"/>
    </vehicle>
    <vehicle id="car_127" type="car" depart="190.50" departLane="free" departSpeed="max">
        <route edges="200568455#0 227216231#0 236818215 236818214 187938710#0 169400609#0 224821293#0 224821293#2 1232799370 1232799371#2 1232799371#4 277203712 236809165"/>
    </vehicle>
    <vehicle id="car_129" type="car" depart="193.50" departLane="free" departSpeed="max">
        <route edges="1232799370 1232799371#2 1232799371#4 277203712 236809165"/>
    </vehicle>
    <vehicle id="car_130" type="car" depart="195.00" departLane="free" departSpeed="max">
        <route edges="161297934 1362019276 29092803 942711932#0 61316958 236818220#0 287956206#2 1271126935 187938713#0 287311357#0 169400609#0"/>
    </vehicle>
    <vehicle id="car_131" type="car" depart="196.50" departLane="free" departSpeed="max">
        <route edges="61293002 61293002.258 236825276 291941452 291941449 1232964862 27476764#0 -1348067248 61295588#0 25126523 1362019277 1362020490"/>
    </vehicle>
    <vehicle id="car_136" type="car" depart="204.00" departLane="free" departSpeed="max">
        <route edges="961539471 961539472 236811148 236811149#0 1271126935 169400610#0 771467599#0 224821292#0 1147624737#0 1147624737#1"/>
    </vehicle>
    <vehicle id="car_137" type="car" depart="205.50" departLane="free" departSpeed="max">
        <route edges="161297934 1362019276 29092803 942711932#0 61316958 236818221#0 224821293#2 1232799370 1232799371#2 1232799371#4 277203712 236809165"/>
    </vehicle>
    <vehicle id="car_140" type="car" depart="210.00" departLane="free" departSpeed="max">
        <route edges="200568455#0 227216231#0 236818215 236818214 187938710#0 169400609#0 224821293#0 224821293#2 1232799370 1232799371#2 1232799371#4 277203712 236809165"/>
    </vehicle>
    <vehicle id="car_141" type="car" depart="211.50" departLane="free" departSpeed="max">
        <route edges="961539471 961539472 236811148 236811149#0 1271126935 187938713#0 287311357#0 27348585#0 61316915 287956205 25126523 1362019277 1362020490"/>
    </vehicle>
    <vehicle id="car_142" type="car" depart="213.00" departLane="free" departSpeed="max">
        <route edges="153776637#0 E0 224821293#2 1232799370 1232799371#2 1232799371#4 277203712"/>
    </vehicle>
    <vehicle id="car_143" type="car" depart="214.50" departLane="free" departSpeed="max">
        <route edges="61293002 61293002.258 236825276 291941452 291941449 1232964862 27476764#0 -1348067248 61295588#0 25126523 1362019277"/>
    </vehicle>
    <vehicle id="car_144" type="car" depart="216.00" departLane="free" departSpeed="max">
        <route edges="27476764#0 -1348067248 61295588#0 25126523 1362019277 1362020490"/>
    </vehicle>
    <vehicle id="car_146" type="car" depart="219.00" departLane="free" departSpeed="max">
        <route edges="287311363#0 1348067247 1348067246#0 287311364 27476746 291941452 942711943 1347887395 255904385#0 61316958 236818220#0 287956206#2 1271126935 187938713#0"/>
    </vehicle>
    <vehicle id="car_148" type="car" depart="222.00" departLane="free" departSpeed="max">
        <route edges="61293002 61293002.258 236825276 291941452 291941449 1232964862 27476764#0 -1348067248"/>
    </vehicle>
    <vehicle id="car_149" type="car" depart="223.50" departLane="free" departSpeed="max">
        <route edges="236818215 236818214 187938710#0 27348585#0 61316915 187938712 287311363#0 1348067247 1348067246#0 287311364 236825277 -1316855122#3"/>
    </vehicle>
    <vehicle id="car_150" type="car" depart="225.00" departLane="free" departSpeed="max">
        <route edges="-27476683 942711942 1232964862 1232964863 287311364 27476746 291941452 942711943 1347887395 255904385#0 61316958"/>
    </vehicle>
    <vehicle id="car_151" type="car" depart="226.50" departLane="free" departSpeed="max">
        <route edges="1362019276 29092803 942711932#0 61316958 236818220#0"/>
    </vehicle>
    <vehicle id="car_152" type="car" depart="228.00" departLane="free" departSpeed="max">
        <route edges="287311357#0 27348585#0 61316915 287956205 25126523 1362019277 1362020490"/>
    </vehicle>
    <vehicle id="car_154" type="car" depart="231.00" departLane="free" departSpeed="max">
        <route edges="287311363#0 1348067247 1348067246#0 287311364 27476746 291941452 942711943 1347887395 255904385#0 61316958 236818220#0 287956206#2 1271126935 187938713#0 287311357#0 27348585#0"/>
    </vehicle>
    <vehicle id="car_155" type="car" depart="232.50" departLane="free" departSpeed="max">
        <route edges="161297934 1362019276 29092803 942711932#0 61316958 236818220#0 287956206#2 1271126935 169400610#0 771467599#0 224821292#0 1147624737#0 1147624737#1"/>
    </vehicle>
    <vehicle id="car_157" type="car" depart="235.50" departLane="free" departSpeed="max">
        <route edges="161297934 1362019276 29092803 942711932#0 61316958 236818220#0 287956206#2 1271126935 169400610#0 771467599#0 224821292#0 1147624737#0 1147624737#1"/>
    </vehicle>
    <vehicle id="car_158" type="car" depart="237.00" departLane="free" departSpeed="max">
        <route edges="161297934 1362019276 29092803 432309717 -27476683 942711942 1232964862 1232964863 287311364 236825277 -1316855122#3"/>
    </vehicle>
    <vehicle id="car_159" type="car" depart="238.50" departLane="free" departSpeed="max">
        <route edges="287311363#0 1348067247 1348067246#0 287311364 27476746 291941452 942711943 1347887395 255904385#0 61316958 236818220#0 287956206#2 1271126935 169400610#0 771467599#0 224821292#0 1147624737#0 1147624737#1"/>
    </vehicle>
    <vehicle id="car_160" type="car" depart="240.00" departLane="free" departSpeed="max">
        <route edges="161297934 1362019276 29092803 432309717 -27476683 942711942 1232964862 1232964863 287311364 236825277 -1316855122#3"/>
    </vehicle>
    <vehicle id="car_161" type="car" depart="241.50" departLane="free" departSpeed="max">
        <route edges="961539471 961539472 236811148 236811149#0 1271126935 187938713#0 287311357#0 27348585#0 61316915 187938712"/>
    </vehicle>
    <vehicle id="car_162" type="car" depart="243.00" departLane="free" departSpeed="max">
        <route edges="61293002 61293002.258 236825276 291941452 291941449 1232964862 27476764#0 -1348067248 61295588#0 25126523 1362019277 1362020490"/>
    </vehicle>
    <vehicle id="car_167" type="car" depart="250.50" departLane="free" departSpeed="max">
        <route edges="61293002 61293002.258 236825276 291941452 942711943 1347887395 255904385#0 61316958 236818221#0 224821293#2"/>
    </vehicle>
    <vehicle id="car_168" type="car" depart="252.00" departLane="free" departSpeed="max">
        <route edges="61293002 61293002.258 236825276 291941452 942711943 1347887395 255904385#0 61316958 236818220#0 287956206#2 1271126935 169400610#0 771467599#0 224821292#0 1147624737#0 1147624737#1"/>
    </vehicle>
    <vehicle id="car_169" type="car" depart="253.50" departLane="free" departSpeed="max">
        <route edges="161297934 1362019276 29092803 942711932#0 61316958 236818220#0 287956206#2 1271126935 169400610#0 771467599#0 224821292#0 1147624737#0 1147624737#1"/>
    </vehicle>
    <vehicle id="car_170" type="car" depart="255.00" departLane="free" departSpeed="max">
        <route edges="161297934 1362019276 29092803 432309717 -27476683 942711942 1232964862 1232964863 287311364 236825277 -1316855122#3"/>
    </vehicle>
    <vehicle id="car_172" type="car" depart="258.00" departLane="free" departSpeed="max">
        <route edges="61293002 61293002.258 236825276 291941452 942711943 1347887395 255904385#0 61316958 236818221#0 224821293#2 1232799370 1232799371#2 1232799371#4 277203712 236809165"/>
    </vehicle>
    <vehicle id="car_174" type="car" depart="261.00" departLane="free" departSpeed="max">
        <route edges="61293002 61293002.258 236825276 291941452 291941449 1232964862 1232964863 287311364 236825277 -1316855122#3"/>
    </vehicle>
    <vehicle id="car_175" type="car" depart="262.50" departLane="free" departSpeed="max">
        <route edges="161297934 1362019276 29092803 432309717 -27476683 942711942 1232964862 1232964863 287311364 27476746 291941452 942711943 1347887395"/>
    </vehicle>
    <vehicle id="car_177" type="car" depart="265.50" departLane="free" departSpeed="max">
        <route edges="1271126935 187938713#0 287311357#0 27348585#0 61316915 287956205 25126523 1362019277 1362020490"/>
    </vehicle>
    <vehicle id="car_178" type="car" depart="267.00" departLane="free" departSpeed="max">
        <route edges="200568455#0 227216231#0 236818215 236818214 161297931#0 432309716#0 287956206#2 1271126935 169400610#0 771467599#0 224821292#0 1147624737#0 1147624737#1"/>
    </vehicle>
    <vehicle id="car_180" type="car" depart="270.00" departLane="free" departSpeed="max">
        <route edges="1271126935 187938713#0 287311357#0 27348585#0 61316915 187938712 287311363#0 1348067247 1348067246#0 287311364 27476746 291941452 942711943 1347887395 255904385#0"/>
    </vehicle>
    <vehicle id="car_182" type="car" depart="273.00" departLane="free" departSpeed="max">
        <route edges="407552210#0 430532795"/>
    </vehicle>
    <vehicle id="car_183" type="car" depart="274.50" departLane="free" departSpeed="max">
        <route edges="200568455#0 227216231#0 236818215 236818214 187938710#0 169400609#0 224821293#0 224821293#2 1232799370 1232799371#2 1232799371#4 277203712 236809165"/>
    </vehicle>
    <vehicle id="car_184" type="car" depart="276.00" departLane="free" departSpeed="max">
        <route edges="200568455#0 227216231#0 236818215 236818214 187938710#0 27348585#0 61316915 187938712 287311363#0 1348067247 1348067246#0 287311364 27476746 291941452 942711943 1347887395 255904385#0 61316958"/>
    </vehicle>
    <vehicle id="car_185" type="car" depart="277.50" departLane="free" departSpeed="max">
        <route edges="E0 224821293#2 1232799370 1232799371#2 1232799371#4 277203712 236809165"/>
    </vehicle>
    <vehicle id="car_186" type="car" depart="279.00" departLane="free" departSpeed="max">