<?xml version="1.0" encoding="UTF-8"?>

<!-- generated on 2026-03-15T10:47:43.519545+01:00 by Eclipse SUMO netedit 1.26.0
-->

<routes xmlns:xsi="http://www.w3.org/2001/XMLSchema-instance" xsi:noNamespaceSchemaLocation="http://sumo.dlr.de/xsd/routes_file.xsd">
    <!-- VTypes -->
    <vType id="car_ev" length="4.80" maxSpeed="50.00" vClass="passenger" emissionClass="Energy/default" guiShape="passenger/hatchback" color="green" lcStrategic="0.5" lcSpeedGain="3.5" lcAssertive="1.5" accel="3.2" decel="4.5" sigma="0.4"/>
    <!-- Vehicles, persons and containers (sorted by depart) -->
    <vehicle id="car_ev_0" type="car_ev" depart="0.00">
        <route edges="29114711#0.184 1362017843 1362017842.95 313992354#0 313992354#1 1362017841 313992351#0 287311357#0 27348585#0 61316915 187938712 287311363#0 1348067247 1348067246#0 287311364 236825277 -1316855122#3"/>
    </vehicle>
    <vehicle id="car_ev_1" type="car_ev" depart="4.00">
        <route edges="200568455#0 227216231#0 236818215 236818214 161297931#0 432309716#0 287956206#2 1271126935 169400610#0 771467599#0 224821292#0 1147624737#0 1147624737#1"/>
    </vehicle>
    <vehicle id="car_ev_2" type="car_ev" depart="8.00">
        <route edges="61293002 61293002.258 236825276 291941452 942711943 1347887395 255904385#0 61316958 236818221#0 224821293#2 1232799370 1232799371#2 1232799371#4 277203712 236809165"/>
    </vehicle>
    <vehicle id="car_ev_3" type="car_ev" depart="12.00">
        <route edges="961539471 961539472 236811148 236811149#0 1451328237#0 E1 1323631883 430532793.85 430532793.85.34 430532793.85.34.10 -407552210#1"/>
    </vehicle>
    <vehicle id="car_ev_4" type="car_ev" depart="16.00">
        <route edges="1362017841 153776638#0 153776638#0.87 224821292#0 1147624737#0 1147624737#1"/>
    </vehicle>
    <vehicle id="car_ev_5" type="car_ev" depart="20.00">
        <route edges="961539471 961539472 236811148 236811149#0 1271126935 187938713#0 287311357#0 27348585#0 61316915 187938712 287311363#0 1348067247 1348067246#0 287311364 236825277 -1316855122#3"/>
    </vehicle>
    <vehicle id="car_ev_7" type="car_ev" depart="28.00">
        <route edges="236811148 236811149#0 1271126935 169400610#0 771467599#0 224821292#0 1147624737#0 1147624737#1"/>
    </vehicle>
    <vehicle id="car_ev_8" type="car_ev" depart="32.00">
        <route edges="961539471 961539472 236811148 236811149#0 1271126935 187938713#0 287311357#0 27348585#0 61316915 287956205 25126523 1362019277 1362020490"/>
    </vehicle>
    <vehicle id="car_ev_9" type="car_ev" depart="36.00">
        <route edges="161297934 1362019276 29092803 942711932#0 61316958 236818220#0 287956206#2 1451328237#0 E1 1323631883 430532793.85 430532793.85.34 430532793.85.34.10 -407552210#1"/>
    </vehicle>
    <vehicle id="car_ev_11" type="car_ev" depart="44.00">
        <route edges="277203721 277203724 200568452#0"/>
    </vehicle>
    <vehicle id="car_ev_12" type="car_ev" depart="48.00">
        <route edges="961539471 961539472 236811148 236811149#0 1271126935 169400610#0 771467599#0 224821292#0"/>
    </vehicle>
    <vehicle id="car_ev_13" type="car_ev" depart="52.00">
        <route edges="200568455#0 227216231#0 236818215 236818214 187938710#0 169400609#0 224821293#0 224821293#2 1232799370 1232799371#2 1232799371#4"/>
    </vehicle>
    <vehicle id="car_ev_14" type="car_ev" depart="56.00">
        <route edges="161297934 1362019276 29092803 942711932#0 61316958 236818220#0 287956206#2 1271126935 169400610#0 771467599#0 224821292#0 1147624737#0 1147624737#1"/>
    </vehicle>
    <vehicle id="car_ev_15" type="car_ev" depart="60.00">
        <route edges="161297934 1362019276 29092803 942711932#0 61316958 236818220#0 287956206#2 1271126935 169400610#0 771467599#0 224821292#0 1147624737#0 1147624737#1"/>
    </vehicle>
    <vehicle id="car_ev_16" type="car_ev" depart="64.00">
        <route edges="29114711#0.184 1362017843 1362017842.95 196662201 942711933 196664103 1362019277 1362020490"/>
    </vehicle>
    <vehicle id="car_ev_17" type="car_ev" depart="68.00">
        <route edges="27348585#0 61316915 187938712 287311363#0 1348067247 1348067246#0 287311364 27476746 291941452 942711943 1347887395 255904385#0 61316958 236818220#0 287956206#2 1271126935 169400610#0 771467599#0 224821292#0 1147624737#0 1147624737#1"/>
    </vehicle>
    <vehicle id="car_ev_18" type="car_ev" depart="72.00">
        <route edges="200568455#0 227216231#0 236818215 236818214 161297931#0 432309716#0 287956206#2 1451328237#0 E1 1323631883 430532793.85 430532793.85.34 430532793.85.34.10 430532795"/>
    </vehicle>
    <vehicle id="car_ev_19" type="car_ev" depart="76.00">
        <route edges="200568455#0 227216231#0 236818215 236818214 187938710#0 169400609#0 224821293#0 224821293#2 1232799370 1232799371#2 1232799371#4 277203712 236809165"/>
    </vehicle>
    <vehicle id="car_ev_20" type="car_ev" depart="80.00">
        <route edges="187938713#0 287311357#0 27348585#0 61316915 287956205 25126523 1362019277 1362020490"/>
    </vehicle>
    <vehicle id="car_ev_22" type="car_ev" depart="88.00">
        <route edges="29114711#0.184 1362017843 1362017842.95 313992354#0 313992354#1 1362017841 313992351#0 287311357#0 169400609#0 224821293#0 224821293#2 1232799370 1232799371#2 1232799371#4 277203712 236809165"/>
    </vehicle>
    <vehicle id="car_ev_24" type="car_ev" depart="96.00">
        <route edges="200568455#0 227216231#0 236818215 236818214 187938710#0 27348585#0 61316915 187938712 287311363#0 1348067247 1348067246#0 287311364 236825277 -1316855122#3"/>
    </vehicle>
    <vehicle id="car_ev_25" type="car_ev" depart="100.00">
        <route edges="200568455#0 227216231#0 236818215 236818214 161297931#0 432309716#0 287956206#2 1271126935 169400610#0 771467599#0 224821292#0 1147624737#0 1147624737#1"/>
    </vehicle>
    <vehicle id="car_ev_26" type="car_ev" depart="104.00">
        <route edges="200568455#0 227216231#0 236818215 236818214 161297931#0 432309716#0 287956206#2 1451328237#0 E1 1323631883 430532793.85 430532793.85.34 430532793.85.34.10 430532795"/>
    </vehicle>
    <vehicle id="car_ev_27" type="car_ev" depart="108.00">
        <route edges="961539471 961539472 236811148 236811149#0 1271126935 187938713#0 287311357#0 27348585#0 61316915 287956205 25126523 1362019277"/>
    </vehicle>
    <vehicle id="car_ev_28" type="car_ev" depart="112.00">
        <route edges="200568455#0 227216231#0 236818215 236818214 161297931#0 432309716#0 287956206#2 1271126935 169400610#0 771467599#0 224821292#0 1147624737#0 1147624737#1"/>
    </vehicle>
    <vehicle id="car_ev_29" type="car_ev" depart="116.00">
        <route edges="29114711#0.184 1362017843 1362017842.95 313992354#0 313992354#1 1362017841 153776638#0 153776638#0.87 224821292#0 1147624737#0 1147624737#1"/>
    </vehicle>
    <vehicle id="car_ev_30" type="car_ev" depart="120.00">
        <route edges="29114711#0.184 1362017843 1362017842.95 313992354#0 313992354#1 1362017841 313992351#0 287311357#0 432309716#0 287956206#2 1451328237#0 E1 1323631883 430532793.85 430532793.85.34 430532793.85.34.10 430532795"/>
    </vehicle>
    <vehicle id="car_ev_31" type="car_ev" depart="124.00">
        <route edges="161297934 1362019276 29092803 432309717 -27476683 942711942 1232964862 1232964863 287311364 236825277 -1316855122#3"/>
    </vehicle>
    <vehicle id="car_ev_32" type="car_ev" depart="128.00">
        <route edges="961539471 961539472 236811148 236811149#0 1271126935 187938713#0 287311357#0 27348585#0 61316915 287956205 25126523 1362019277 1362020490"/>
    </vehicle>
    <vehicle id="car_ev_33" type="car_ev" depart="132.00">
        <route edges="161297934 1362019276 29092803 942711932#0 61316958 236818220#0 287956206#2 1271126935 187938713#0 287311357#0 27348585#0 61316915 287956205 25126523 1362019277 1362020490"/>
    </vehicle>
    <vehicle id="car_ev_34" type="car_ev" depart="136.00">
        <route edges="961539471 961539472 236811148 236811149#0 1451328237#0 E1 1323631883 430532793.85 430532793.85.34 430532793.85.34.10"/>
    </vehicle>
    <vehicle id="car_ev_35" type="car_ev" depart="140.00">
        <route edges="1232799371#2 1232799371#4 277203712 236809165"/>
    </vehicle>
    <vehicle id="car_ev_36" type="car_ev" depart="144.00">
        <route edges="200568455#0 227216231#0 236818215 236818214 187938710#0 169400609#0 224821293#0 224821293#2 1232799370 1232799371#2 1232799371#4 277203712 236809165"/>
    </vehicle>
    <vehicle id="car_ev_37" type="car_ev" depart="148.00">
        <route edges="161297934 1362019276 29092803 942711932#0 61316958 236818220#0 287956206#2 1271126935 187938713#0 287311357#0 169400609#0"/>
    </vehicle>
    <vehicle id="car_ev_38" type="car_ev" depart="152.00">
        <route edges="961539471 961539472 236811148 236811149#0 1271126935 169400610#0 771467599#0 224821292#0 1147624737#0 1147624737#1"/>
    </vehicle>
    <vehicle id="car_ev_39" type="car_ev" depart="156.00">
        <route edges="961539471 961539472 236811148 236811149#0 1451328237#0 E1 1323631883 430532793.85 430532793.85.34 430532793.85.34.10 430532795"/>
    </vehicle>
    <vehicle id="car_ev_40" type="car_ev" depart="160.00">
        <route edges="200568455#0 227216231#0 236818215 236818214 187938710#0 169400609#0 224821293#0 224821293#2 1232799370 1232799371#2 1232799371#4 277203712 236809165"/>
    </vehicle>
    <vehicle id="car_ev_41" type="car_ev" depart="164.00">
        <route edges="29114711#0.184 1362017843 1362017842.95 313992354#0 313992354#1 1362017841 153776638#0 153776638#0.87 224821292#0 1147624737#0 1147624737#1"/>
    </vehicle>
    <vehicle id="car_ev_42" type="car_ev" depart="168.00">
        <route edges="-1348067248 61295588#0 25126523 1362019277 1362020490"/>
    </vehicle>
    <vehicle id="car_ev_43" type="car_ev" depart="172.00">
        <route edges="1271126935 187938713#0 287311357#0 432309716#0 287956206#2 1451328237#0 E1 1323631883 430532793.85 430532793.85.34 430532793.85.34.10 430532795"/>
    </vehicle>
    <vehicle id="car_ev_45" type="car_ev" depart="180.00">
        <route edges="200568455#0 227216231#0 236818215 236818214 161297931#0 432309716#0 287956206#2 1451328237#0 E1 1323631883 430532793.85 430532793.85.34 430532793.85.34.10 -407552210#1"/>
    </vehicle>
    <vehicle id="car_ev_46" type="car_ev" depart="184.00">
        <route edges="961539471 961539472 236811148 236811149#0 1451328237#0 E1 1323631883 430532793.85 430532793.85.34 430532793.85.34.10 430532795"/>
    </vehicle>
    <vehicle id="car_ev_47" type="car_ev" depart="188.00">
        <route edges="161297934 1362019276 29092803 942711932#0 61316958 236818221#0 224821293#2 1232799370 1232799371#2 1232799371#4 277203712 236809165"/>
    </vehicle>
    <vehicle id="car_ev_48" type="car_ev" depart="192.00">
        <route edges="61293002 61293002.258 236825276 291941452 942711943 1347887395 255904385#0 61316958 236818220#0 287956206#2 1271126935 169400610#0 771467599#0 224821292#0 1147624737#0 1147624737#1"/>
    </vehicle>
    <vehicle id="car_ev_49" type="car_ev" depart="196.00">
        <route edges="277203721 277203724 200568452#0"/>
    </vehicle>
    <vehicle id="car_ev_50" type="car_ev" depart="200.00">
        <route edges="200568455#0 227216231#0 236818215 236818214 161297931#0 432309716#0 287956206#2 1451328237#0 E1 1323631883 430532793.85 430532793.85.34 430532793.85.34.10 430532795"/>
    </vehicle>
    <vehicle id="car_ev_51" type="car_ev" depart="204.00">
        <route edges="287956206#2 1271126935 187938713#0 287311357#0 169400609#0 224821293#0 224821293#2 1232799370 1232799371#2 1232799371#4 277203712 236809165"/>
    </vehicle>
    <vehicle id="car_ev_53" type="car_ev" depart="212.00">
        <route edges="277203721 277203724 200568452#0"/>
    </vehicle>
    <vehicle id="car_ev_54" type="car_ev" depart="216.00">
        <route edges="161297934 1362019276 29092803 942711932#0 61316958 236818220#0 287956206#2 1271126935 169400610#0 771467599#0 224821292#0 1147624737#0 1147624737#1"/>
    </vehicle>
    <vehicle id="car_ev_55" type="car_ev" depart="220.00">
        <route edges="200568455#0 227216231#0 236818215 236818214 161297931#0 432309716#0 287956206#2 1271126935 169400610#0 771467599#0 224821292#0 1147624737#0 1147624737#1"/>
    </vehicle>
    <vehicle id="car_ev_56" type="car_ev" depart="224.00">
        <route edges="161297934 1362019276 29092803 942711932#0 61316958 236818221#0 224821293#2 1232799370 1232799371#2 1232799371#4 277203712 236809165"/>
    </vehicle>
    <vehicle id="car_ev_57" type="car_ev" depart="228.00">
        <route edges="200568455#0 227216231#0 236818215 236818214 161297931#0 432309716#0 287956206#2 1451328237#0 E1 1323631883 430532793.85 430532793.85.34 430532793.85.34.10 430532795"/>
    </vehicle>
    <vehicle id="car_ev_58" type="car_ev" depart="232.00">
        <route edges="961539471 961539472 236811148 236811149#0 1451328237#0 E1 1323631883 430532793.85 430532793.85.34 430532793.85.34.10 -407552210#1"/>
    </vehicle>
    <vehicle id="car_ev_59" type="car_ev" depart="236.00">
        <route edges="200568455#0 227216231#0 236818215 236818214 187938710#0 169400609#0 224821293#0 224821293#2 1232799370 1232799371#2 1232799371#4 277203712 236809165"/>
    </vehicle>
    <vehicle id="car_ev_60" type="car_ev" depart="240.00">
        <route edges="200568455#0 227216231#0 236818215 236818214 161297931#0 432309716#0 287956206#2 1271126935 169400610#0 771467599#0 224821292#0 1147624737#0 1147624737#1"/>
    </vehicle>
    <vehicle id="car_ev_61" type="car_ev" depart="244.00">
        <route edges="961539471 961539472 236811148 236811149#0 1271126935 169400610#0 771467599#0 224821292#0 1147624737#0 1147624737#1"/>
    </vehicle>
    <vehicle id="car_ev_62" type="car_ev" depart="248.00">
        <route edges="277203721 277203724 200568452#0"/>
    </vehicle>
    <vehicle id="car_ev_63" type="car_ev" depart="252.00">
        <route edges="61293002 61293002.258 236825276 291941452 942711943 1347887395 255904385#0 61316958 236818221#0 224821293#2 1232799370 1232799371#2 1232799371#4 277203712 236809165"/>
    </vehicle>
    <vehicle id="car_ev_64" type="car_ev" depart="256.00">
        <route edges="961539471 961539472 236811148 236811149#0 1451328237#0 E1 1323631883 430532793.85 430532793.85.34 430532793.85.34.10 -407552210#1"/>
    </vehicle>
    <vehicle id="car_ev_65" type="car_ev" depart="260.00">
        <route edges="961539471 961539472 236811148 236811149#0 1271126935 169400610#0 771467599#0 224821292#0 1147624737#0 1147624737#1"/>
    </vehicle>
    <vehicle id="car_ev_66" type="car_ev" depart="264.00">
        <route edges="200568455#0 227216231#0 236818215 236818214 161297931#0 432309716#0 287956206#2 1451328237#0 E1 1323631883 430532793.85 430532793.85.34 430532793.85.34.10 430532795"/>
    </vehicle>
    <vehicle id="car_ev_67" type="car_ev" depart="268.00">
        <route edges="29114711#0.184 1362017843 1362017842.95 313992354#0 313992354#1 1362017841 313992351#0 287311357#0 27348585#0 61316915 187938712 287311363#0 1348067247 1348067246#0 287311364 236825277 -1316855122#3"/>
    </vehicle>
    <vehicle id="car_ev_68" type="car_ev" depart="272.00">
        <route edges="961539471 961539472 236811148 236811149#0 1451328237#0 E1 1323631883 430532793.85 430532793.85.34 430532793.85.34.10 430532795"/>
    </vehicle>
    <vehicle id="car_ev_69" type="car_ev" depart="276.00">
        <route edges="961539471 961539472 236811148 236811149#0 1271126935 169400610#0 771467599#0 224821292#0 1147624737#0 1147624737#1"/>
    </vehicle>
    <vehicle id="car_ev_70" type="car_ev" depart="280.00">
        <route edges="200568455#0 227216231#0 236818215 236818214 187938710#0 169400609#0 224821293#0 224821293#2 1232799370 1232799371#2 1232799371#4 277203712 236809165"/>
    </vehicle>
    <vehicle id="car_ev_71" type="car_ev" depart="284.00">
        <route edges="961539471 961539472"/>
    </vehicle>
    <vehicle id="car_ev_72" type="car_ev" depart="288.00">
        <route edges="29114711#0.184 1362017843 1362017842.95 313992354#0 313992354#1 1362017841 313992351#0 287311357#0 169400609#0 224821293#0 224821293#2 1232799370 1232799371#2 1232799371#4 277203712 236809165"/>
    </vehicle>
    <vehicle id="car_ev_73" type="car_ev" depart="292.00">
        <route edges="29114711#0.184 1362017843 1362017842.95 313992354#0 313992354#1 1362017841 313992351#0 287311357#0 169400609#0 224821293#0 224821293#2 1232799370 1232799371#2 1232799371#4 277203712 236809165"/>
    </vehicle>
    <vehicle id="car_ev_74" type="car_ev" depart="296.00">
        <route edges="161297934 1362019276 29092803 942711932#0 61316958 236818220#0 287956206#2 1271126935 169400610#0 771467599#0 224821292#0 1147624737#0 1147624737#1"/>
    </vehicle>
    <vehicle id="car_ev_75" type="car_ev" depart="300.00">
        <route edges="29114711#0.184 1362017843 1362017842.95 313992354#0 313992354#1 1362017841 313992351#0 287311357#0 169400609#0 224821293#0 224821293#2 1232799370 1232799371#2 1232799371#4 277203712 236809165"/>
    </vehicle>
    <vehicle id="car_ev_76" type="car_ev" depart="304.00">
        <route edges="200568455#0 227216231#0 236818215 236818214 161297931#0 432309716#0 287956206#2 1271126935 169400610#0 771467599#0 224821292#0 1147624737#0 1147624737#1"/>
    </vehicle>
    <vehicle id="car_ev_77" type="car_ev" depart="308.00">
        <route edges="961539471 961539472 236811148 236811149#0 1271126935 169400610#0 771467599#0 224821292#0 1147624737#0 1147624737#1"/>
    </vehicle>
    <vehicle id="car_ev_78" type="car_ev" depart="312.00">
        <route edges="29114711#0.184 1362017843 1362017842.95 313992354#0 313992354#1 1362017841 313992351#0 287311357#0 169400609#0 224821293#0"/>
    </vehicle>
    <vehicle id="car_ev_79" type="car_ev" depart="316.00">
        <route edges="277203721 277203724 200568452#0"/>
    </vehicle>
    <vehicle id="car_ev_80" type="car_ev" depart="320.00">
        <route edges="200568455#0 227216231#0 236818215 236818214 187938710#0 169400609#0 224821293#0 224821293#2 1232799370 1232799371#2 1232799371#4 277203712 236809165"/>
    </vehicle>
    <vehicle id="car_ev_81" type="car_ev" depart="324.00">
        <route edges="200568455#0 227216231#0 236818215 236818214 187938710#0 27348585#0 61316915 287956205 25126523 1362019277 1362020490"/>
    </vehicle>
    <vehicle id="car_ev_82" type="car_ev" depart="328.00">
        <route edges="200568455#0 227216231#0 236818215 236818214 187938710#0 169400609#0 224821293#0 224821293#2 1232799370 1232799371#2 1232799371#4 277203712 236809165"/>
    </vehicle>
    <vehicle id="car_ev_83" type="car_ev" depart="332.00">
        <route edges="161297934 1362019276 29092803 942711932#0 61316958 236818220#0 287956206#2 1271126935 169400610#0 771467599#0 224821292#0 1147624737#0 1147624737#1"/>
    </vehicle>
    <vehicle id="car_ev_84" type="car_ev" depart="336.00">
        <route edges="200568455#0 227216231#0 236818215 236818214 161297931#0 432309716#0 287956206#2 1451328237#0 E1 1323631883 430532793.85 430532793.85.34 430532793.85.34.10 430532795"/>
    </vehicle>
    <vehicle id="car_ev_85" type="car_ev" depart="340.00">
        <route edges="961539471 961539472 236811148 236811149#0 1451328237#0 E1 1323631883 430532793.85 430532793.85.34 430532793.85.34.10 430532795"/>
    </vehicle>
    <vehicle id="car_ev_86" type="car_ev" depart="344.00">
        <route edges="27348585#0 61316915 187938712 287311363#0 1348067247 1348067246#0 287311364 27476746 291941452 942711943 1347887395 255904385#0 61316958 236818220#0 287956206#2 1271126935 169400610#0 771467599#0 224821292#0 1147624737#0 1147624737#1"/>
    </vehicle>
    <vehicle id="car_ev_88" type="car_ev" depart="352.00">
        <route edges="961539471 961539472 236811148 236811149#0 1271126935 187938713#0 287311357#0 27348585#0 61316915 187938712 287311363#0 1348067247 1348067246#0"/>
    </vehicle>
    <vehicle id="car_ev_89" type="car_ev" depart="356.00">
        <route edges="407552210#0 430532795"/>
    </vehicle>
    <vehicle id="car_ev_90" type="car_ev" depart="360.00">
        <route edges="161297934 1362019276 29092803 942711932#0 61316958 236818220#0 287956206#2 1271126935 169400610#0 771467599#0 224821292#0 1147624737#0"/>
    </vehicle>
    <vehicle id="car_ev_91" type="car_ev" depart="364.00">
        <route edges="61293002 61293002.258 236825276 291941452 942711943 1347887395 255904385#0 61316958 236818220#0 287956206#2 1271126935 169400610#0 771467599#0 224821292#0 1147624737#0 1147624737#1"/>
    </vehicle>
    <vehicle id="car_ev_92" type="car_ev" depart="368.00">
        <route edges="29114711#0.184 1362017843 1362017842.95 313992354#0 313992354#1 1362017841 153776638#0 153776638#0.87 224821292#0 1147624737#0 1147624737#1"/>
    </vehicle>
    <vehicle id="car_ev_93" type="car_ev" depart="372.00">
        <route edges="961539471 961539472 236811148 236811149#0 1451328237#0 E1 1323631883 430532793.85 430532793.85.34 430532793.85.34.10 -407552210#1"/>
    </vehicle>
    <vehicle id="car_ev_94" type="car_ev" depart="376.00">
        <route edges="29114711#0.184 1362017843 1362017842.95 313992354#0 313992354#1 1362017841 153776638#0 153776638#0.87 224821292#0 1147624737#0 1147624737#1"/>
    </vehicle>
    <vehicle id="car_ev_95" type="car_ev" depart="380.00">
        <route edges="161297934 1362019276 29092803 942711932#0 61316958 236818220#0 287956206#2 1451328237#0 E1 1323631883 430532793.85 430532793.85.34 430532793.85.34.10 430532795"/>
    </vehicle>
    <vehicle id="car_ev_96" type="car_ev" depart="384.00">
        <route edges="161297934 1362019276 29092803 942711932#0 61316958 236818220#0 287956206#2 1271126935 169400610#0 771467599#0 224821292#0 1147624737#0 1147624737#1"/>
    </vehicle>
    <vehicle id="car_ev_97" type="car_ev" depart="388.00">
        <route edges="200568455#0 227216231#0 236818215 236818214 161297931#0 432309716#0 287956206#2 1451328237#0 E1 1323631883 430532793.85 430532793.85.34 430532793.85.34.10 430532795"/>
    </vehicle>
    <vehicle id="car_ev_98" type="car_ev" depart="392.00">
        <route edges="961539471 961539472 236811148 236811149#0 1451328237#0 E1 1323631883 430532793.85 430532793.85.34 430532793.85.34.10"/>
    </vehicle>
    <vehicle id="car_ev_99" type="car_ev" depart="396.00">
        <route edges="961539471 961539472 236811148 236811149#0 1271126935 169400610#0 771467599#0 224821292#0 1147624737#0 1147624737#1"/>
    </vehicle>
    <vehicle id="car_ev_100" type="car_ev" depart="400.00">
        <route edges="200568455#0 227216231#0 236818215 236818214 161297931#0 432309716#0 287956206#2 1451328237#0 E1 1323631883 430532793.85 430532793.85.34 430532793.85.34.10 -407552210#1"/>
    </vehicle>
    <vehicle id="car_ev_101" type="car_ev" depart="404.00">
        <route edges="942711932#0 61316958 236818220#0 287956206#2 1451328237#0 E1 1323631883 430532793.85 430532793.85.34 430532793.85.34.10 430532795"/>
    </vehicle>
    <vehicle id="car_ev_102" type="car_ev" depart="408.00">
        <route edges="961539471 961539472 236811148 236811149#0 1271126935 187938713#0 287311357#0 27348585#0 61316915"/>
    </vehicle>
    <vehicle id="car_ev_103" type="car_ev" depart="412.00">
        <route edges="961539471 961539472 236811148 236811149#0 1451328237#0 E1 1323631883 430532793.85 430532793.85.34 430532793.85.34.10 430532795"/>
    </vehicle>
    <vehicle id="car_ev_104" type="car_ev" depart="416.00">
        <route edges="1348067246#0 287311364 27476746 291941452 942711943 1347887395 255904385#0 61316958 236818221#0 224821293#2 1232799370 1232799371#2 1232799371#4 277203712 236809165"/>
    </vehicle>
    <vehicle id="car_ev_105" type="car_ev" depart="420.00">
        <route edges="961539471 961539472 236811148 236811149#0 1451328237#0 E1 1323631883 430532793.85 430532793.85.34 430532793.85.34.10 430532795"/>
    </vehicle>
    <vehicle id="car_ev_106" type="car_ev" depart="424.00">
        <route edges="961539471 961539472 236811148 236811149#0 1271126935 169400610#0 771467599#0 224821292#0 1147624737#0 1147624737#1"/>
    </vehicle>
    <vehicle id="car_ev_107" type="car_ev" depart="428.00">
        <route edges="961539471 961539472 236811148 236811149#0 1451328237#0 E1 1323631883 430532793.85 430532793.85.34 430532793.85.34.10 -407552210#1"/>
    </vehicle>
    <vehicle id="car_ev_108" type="car_ev" depart="432.00">
        <route edges="961539471 961539472 236811148 236811149#0 1451328237#0 E1 1323631883 430532793.85 430532793.85.34 430532793.85.34.10"/>
    </vehicle>
    <vehicle id="car_ev_109" type="car_ev" depart="436.00">
        <route edges="200568455#0 227216231#0 236818215 236818214 187938710#0 27348585#0 61316915 187938712 287311363#0 1348067247 1348067246#0 287311364 27476746 291941452 942711943 1347887395 255904385#0 61316958 236818220#0"/>
    </vehicle>
    <vehicle id="car_ev_110" type="car_ev" depart="440.00">
        <route edges="961539471 961539472 236811148 236811149#0 1271126935 169400610#0 771467599#0 224821292#0 1147624737#0 1147624737#1"/>
    </vehicle>
    <vehicle id="car_ev_111" type="car_ev" depart="444.00">
        <route edges="1347887395 255904385#0 61316958 236818220#0 287956206#2 1271126935 169400610#0 771467599#0 224821292#0 1147624737#0 1147624737#1"/>
    </vehicle>
    <vehicle id="car_ev_112" type="car_ev" depart="448.00">
        <route edges="961539471 961539472 236811148 236811149#0 1271126935 169400610#0 771467599#0 224821292#0 1147624737#0 1147624737#1"/>
    </vehicle>
    <vehicle id="car_ev_113" type="car_ev" depart="452.00">
        <route edges="29114711#0.184 1362017843 1362017842.95 196662201 942711933 196664103 1362019277 1362020490"/>
    </vehicle>
    <vehicle id="car_ev_114" type="car_ev" depart="456.00">
        <route edges="961539471 961539472 236811148 236811149#0 1271126935 169400610#0 771467599#0 224821292#0 1147624737#0"/>
    </vehicle>
    <vehicle id="car_ev_115" type="car_ev" depart="460.00">
        <route edges="961539471 961539472 236811148 236811149#0 1271126935 169400610#0 771467599#0 224821292#0 1147624737#0 1147624737#1"/>
    </vehicle>
    <vehicle id="car_ev_116" type="car_ev" depart="464.00">
        <route edges="961539471 961539472 236811148 236811149#0 1271126935 169400610#0 771467599#0 224821292#0 1147624737#0 1147624737#1"/>
    </vehicle>
    <vehicle id="car_ev_117" type="car_ev" depart="468.00">
        <route edges="161297934 1362019276 29092803 942711932#0 61316958 236818220#0 287956206#2 1271126935 187938713#0 287311357#0 169400609#0"/>
    </vehicle>
    <vehicle id="car_ev_118" type="car_ev" depart="472.00">
        <route edges="61293002 61293002.258 236825276 291941452 291941449 1232964862 27476764#0 -1348067248 61295588#0 25126523 1362019277"/>
    </vehicle>
    <vehicle id="car_ev_119" type="car_ev" depart="476.00">
        <route edges="277203721 277203724 200568452#0"/>
    </vehicle>
    <vehicle id="car_ev_120" type="car_ev" depart="480.00">
        <route edges="200568455#0 227216231#0 236818215 236818214 187938710#0 169400609#0 224821293#0 224821293#2 1232799370 1232799371#2 1232799371#4 277203712 236809165"/>
    </vehicle>
    <vehicle id="car_ev_121" type="car_ev" depart="484.00">
        <route edges="-27476683 942711942 1232964862 1232964863 287311364 27476746 291941452 942711943 1347887395 255904385#0 61316958 236818220#0 287956206#2 1451328237#0 E1 1323631883 430532793.85 430532793.85.34 430532793.85.34.10 430532795"/>
    </vehicle>
    <vehicle id="car_ev_122" type="car_ev" depart="488.00">
        <route edges="61293002 61293002.258 236825276 291941452 942711943 1347887395 255904385#0 61316958 236818221#0 224821293#2 1232799370 1232799371#2 1232799371#4 277203712 236809165"/>
    </vehicle>
    <vehicle id="car_ev_123" type="car_ev" depart="492.00">
        <route edges="61293002 61293002.258 236825276 291941452 942711943 1347887395 255904385#0 61316958 236818220#0 287956206#2 1271126935 187938713#0 287311357#0 27348585#0 61316915 187938712 287311363#0 1348067247"/>
    </vehicle>
    <vehicle id="car_ev_124" type="car_ev" depart="496.00">
        <route edges="200568455#0 227216231#0 236818215 236818214 187938710#0 27348585#0 61316915 287956205 25126523 1362019277 1362020490"/>
    </vehicle>
    <vehicle id="car_ev_125" type="car_ev" depart="500.00">
        <route edges="161297934 1362019276 29092803 942711932#0 61316958 236818220#0 287956206#2 1271126935 187938713#0 287311357#0 27348585#0 61316915 287956205 25126523 1362019277 1362020490"/>
    </vehicle>
    <vehicle id="car_ev_127" type="car_ev" depart="508.00">
        <route edges="277203721 277203724 200568452#0"/>
    </vehicle>
    <vehicle id="car_ev_128" type="car_ev" depart="512.00">
        <route edges="961539471 961539472 236811148 236811149#0 1271126935 169400610#0 771467599#0 224821292#0 1147624737#0 1147624737#1"/>
    </vehicle>
    <vehicle id="car_ev_129" type="car_ev" depart="516.00">
        <route edges="29114711#0.184 1362017843 1362017842.95 196662201 942711933 196664103 1362019277 1362020490"/>
    </vehicle>
    <vehicle id="car_ev_131" type="car_ev" depart="524.00">
        <route edges="200568455#0 227216231#0 236818215 236818214 187938710#0 27348585#0 61316915 187938712 287311363#0 1348067247 1348067246#0 287311364 236825277 -1316855122#3"/>
    </vehicle>
    <vehicle id="car_ev_132" type="car_ev" depart="528.00">
        <route edges="961539471 961539472 236811148 236811149#0 1451328237#0 E1 1323631883 430532793.85 430532793.85.34 430532793.85.34.10 -407552210#1"/>
    </vehicle>
    <vehicle id="car_ev_133" type="car_ev" depart="532.00">
        <route edges="200568455#0 227216231#0 236818215 236818214 187938710#0 169400609#0 224821293#0 224821293#2 1232799370 1232799371#2 1232799371#4 277203712 236809165"/>
    </vehicle>
    <vehicle id="car_ev_134" type="car_ev" depart="536.00">
        <route edges="61293002 61293002.258 236825276 291941452 942711943 1347887395 255904385#0 61316958 236818221#0 224821293#2 1232799370 1232799371#2 1232799371#4 277203712 236809165"/>
    </vehicle>