<?xml version="1.0" encoding="UTF-8"?>

<!-- generated on 2026-03-14 12:02:56.609916 by Eclipse SUMO randomTrips.py v1_26_0+0000-fa7df22d7f1
<configuration>
    <net-file value=" simulation\network\osm.net.xml"/>
    <additional-files value="simulation\demand\vtypes.add.xml"/>
    <route-file value="simulation\demand\cars.rou.xml"/>
    <prefix value="car_"/>
    <trip-attributes value="type=&quot;car&quot; departLane=&quot;free&quot; departSpeed=&quot;max&quot;"/>
    <fringe-factor value="15.0"/>
    <verbose value="True"/>
    <end value="7200.0"/>
    <period value="1.5"/>
</configuration>
-->

<!-- generated on 2026-03-14T12:02:56.265140+01:00 by Eclipse SUMO duarouter 1.26.0
<duarouterConfiguration xmlns:xsi="http://www.w3.org/2001/XMLSchema-instance" xsi:noNamespaceSchemaLocation="http://sumo.dlr.de/xsd/duarouterConfiguration.xsd">

    <input>
        <net-file value=" simulation\network\osm.net.xml"/>
        <additional-files value=" simulation\demand\vtypes.add.xml"/>
        <route-files value="trips.trips.xml"/>
    </input>

    <output>
        <output-file value=" simulation\demand\cars.rou.xml"/>
        <alternatives-output value="NUL"/>
    </output>

    <time>
        <begin value="0"/>
        <end value="7200.0"/>
    </time>

    <report>
        <verbose value="true"/>
        <no-warnings value="true"/>
        <ignore-errors value="true"/>
        <no-step-log value="true"/>
    </report>

</duarouterConfiguration>
-->

<routes xmlns:xsi="http://www.w3.org/2001/XMLSchema-instance" xsi:noNamespaceSchemaLocation="http://sumo.dlr.de/xsd/routes_file.xsd">
    <vType id="car" length="5.00" maxSpeed="44.44" vClass="passenger" emissionClass="HBEFA3/PC_G_EU4" guiShape="passenger" color="white" lcStrategic="0.5" lcSpeedGain="3.5" lcAssertive="1.5" accel="2.6" decel="4.5" sigma="0.5"/>
    <vehicle id="car_0" type="car" depart="0.00" departLane="free" departSpeed="max">
        <route edges="29114711#0.184 1362017843 1362017842 313992354#0 313992354#1 1362017841 313992351#0 E2 287311357#0 27348585#0 61316915 187938712 287311363#0 1348067247 1348067246#0 287311364 236825277 -1316855122#3"/>
    </vehicle>
    <vehicle id="car_1" type="car" depart="1.50" departLane="free" departSpeed="max">
        <route edges="200568455#0 227216231#0 236818215 236818214 161297931#0 432309716#0 287956206#2 1271126935 169400610#0 771467599#0 224821292#0 1147624737#0 1147624737#1"/>
    </vehicle>
    <vehicle id="car_2" type="car" depart="3.00" departLane="free" departSpeed="max">
        <route edges="942711943 1347887395 255904385#0 61316958 236818220#0 287956206#2 1271126935 187938713#0 287311357#0 27348585#0 61316915 187938712 287311363#0 1348067247 1348067246#0 287311364 27476746 291941452 291941449 1232964862 27476764#0 -1348067248"/>
    </vehicle>
    <vehicle id="car_3" type="car" depart="4.50" departLane="free" departSpeed="max">
        <route edges="27348585#0 61316915 187938712 287311363#0 1348067247 1348067246#0 287311364 236825277 -1316855122#3"/>
    </vehicle>
    <vehicle id="car_4" type="car" depart="6.00" departLane="free" departSpeed="max">
        <route edges="61293002 61293002.258 236825276 291941452 291941449 1232964862 1232964863 287311364 236825277 -1316855122#3"/>
    </vehicle>
    <vehicle id="car_5" type="car" depart="7.50" departLane="free" departSpeed="max">
        <route edges="61293002.258 236825276 291941452 942711943 1347887395 255904385#0 61316958 236818221#0 224821293#2"/>
    </vehicle>
    <vehicle id="car_6" type="car" depart="9.00" departLane="free" departSpeed="max">
        <route edges="61293002 61293002.258 236825276 291941452 942711943 1347887395 255904385#0 61316958 236818221#0"/>
    </vehicle>
    <vehicle id="car_7" type="car" depart="10.50" departLane="free" departSpeed="max">
        <route edges="287311363#0 1348067247 1348067246#0 287311364 27476746 291941452 942711943"/>
    </vehicle>
    <vehicle id="car_8" type="car" depart="12.00" departLane="free" departSpeed="max">
        <route edges="61293002 61293002.258 236825276 291941452 942711943 1347887395 255904385#0 61316958 236818221#0 224821293#2 1232799370 1232799371#2 1232799371#4 277203712 236809165"/>
    </vehicle>
    <vehicle id="car_9" type="car" depart="13.50" departLane="free" departSpeed="max">
        <route edges="187938712 287311363#0 1348067247 1348067246#0 287311364 27476746 291941452 942711943 1347887395 255904385#0 61316958 236818221#0 224821293#2 1232799370 1232799371#2 1232799371#4"/>
    </vehicle>
    <vehicle id="car_10" type="car" depart="15.00" departLane="free" departSpeed="max">
        <route edges="1362017843 1362017842 313992354#0 313992354#1 1362017841 153776638#0 153776638#0.87 224821292#0 1147624737#0 1147624737#1"/>
    </vehicle>
    <vehicle id="car_11" type="car" depart="16.50" departLane="free" departSpeed="max">
        <route edges="29114711#0.184 1362017843 1362017842 196662201 942711933 196664103 1362019277 1362020490"/>
    </vehicle>
    <vehicle id="car_12" type="car" depart="18.00" departLane="free" departSpeed="max">
        <route edges="236811149#0 1271126935 169400610#0 771467599#0 224821292#0 1147624737#0 1147624737#1"/>
    </vehicle>
    <vehicle id="car_13" type="car" depart="19.50" departLane="free" departSpeed="max">
        <route edges="200568455#0 227216231#0 236818215 236818214 187938710#0 27348585#0 61316915 187938712 287311363#0 1348067247 1348067246#0 287311364 27476746 291941452 291941449 1232964862 27476764#0 -1348067248 61295588#0"/>
    </vehicle>
    <vehicle id="car_14" type="car" depart="21.00" departLane="free" departSpeed="max">
        <route edges="161297934 1362019276 29092803 942711932#0 61316958 236818221#0"/>
    </vehicle>
    <vehicle id="car_15" type="car" depart="22.50" departLane="free" departSpeed="max">
        <route edges="161297934 1362019276 29092803 942711932#0 61316958 236818220#0 287956206#2 1271126935 187938713#0 287311357#0 27348585#0 61316915 287956205 25126523 1362019277 1362020490"/>
    </vehicle>
    <vehicle id="car_16" type="car" depart="24.00" departLane="free" departSpeed="max">
        <route edges="29114711#0.184 1362017843 1362017842 313992354#0 313992354#1 1362017841 313992351#0 E2 287311357#0 169400609#0 224821293#0 224821293#2 1232799370 1232799371#2 1232799371#4 277203712 236809165"/>
    </vehicle>
    <vehicle id="car_17" type="car" depart="25.50" departLane="free" departSpeed="max">
        <route edges="187938712 287311363#0 1348067247 1348067246#0 287311364 236825277 -1316855122#3"/>
    </vehicle>
    <vehicle id="car_18" type="car" depart="27.00" departLane="free" departSpeed="max">
        <route edges="200568455#0 227216231#0 236818215 236818214 161297931#0 432309716#0 287956206#2 1271126935 169400610#0 771467599#0 224821292#0 1147624737#0 1147624737#1"/>
    </vehicle>
    <vehicle id="car_19" type="car" depart="28.50" departLane="free" departSpeed="max">
        <route edges="942711932#0 61316958 236818220#0 287956206#2 1271126935 187938713#0 287311357#0 27348585#0 61316915 187938712 287311363#0 1348067247"/>
    </vehicle>
    <vehicle id="car_20" type="car" depart="30.00" departLane="free" departSpeed="max">
        <route edges="313992354#1 1362017841 313992351#0 E2 287311357#0 27348585#0 61316915 287956205 25126523 1362019277 1362020490"/>
    </vehicle>
    <vehicle id="car_21" type="car" depart="31.50" departLane="free" departSpeed="max">
        <route edges="200568455#0 227216231#0 236818215 236818214 161297931#0 432309716#0 287956206#2 1271126935 169400610#0 771467599#0 224821292#0 1147624737#0 1147624737#1"/>
    </vehicle>
    <vehicle id="car_22" type="car" depart="33.00" departLane="free" departSpeed="max">
        <route edges="29114711#0.184 1362017843 1362017842 313992354#0 313992354#1 1362017841 153776638#0 153776638#0.87 224821292#0 1147624737#0 1147624737#1"/>
    </vehicle>
    <vehicle id="car_23" type="car" depart="34.50" departLane="free" departSpeed="max">
        <route edges="29114711#0.184 1362017843 1362017842 313992354#0 313992354#1 1362017841 313992351#0 E2 287311357#0 432309716#0 287956206#2 1451328237#0 E1 1323631883 430532793 430532795"/>
    </vehicle>
    <vehicle id="car_24" type="car" depart="36.00" departLane="free" departSpeed="max">
        <route edges="61293002 61293002.258 236825276 291941452 291941449 1232964862 27476764#0 -1348067248 61295588#0 25126523 1362019277 1362020490"/>
    </vehicle>
    <vehicle id="car_25" type="car" depart="37.50" departLane="free" departSpeed="max">
        <route edges="1348067247 1348067246#0 287311364 27476746 291941452 291941449 1232964862 27476764#0 -1348067248 61295588#0 25126523 1362019277 1362020490"/>
    </vehicle>
    <vehicle id="car_26" type="car" depart="39.00" departLane="free" departSpeed="max">
        <route edges="961539471 961539472 236811148 236811149#0 1451328237#0 E1 1323631883 430532793 430532795"/>
    </vehicle>
    <vehicle id="car_27" type="car" depart="40.50" departLane="free" departSpeed="max">
        <route edges="200568455#0 227216231#0 236818215 236818214 187938710#0 169400609#0 224821293#0 224821293#2 1232799370 1232799371#2 1232799371#4 277203712 236809165"/>
    </vehicle>
    <vehicle id="car_28" type="car" depart="42.00" departLane="free" departSpeed="max">
        <route edges="942711932#0 61316958 236818220#0 287956206#2 1271126935 169400610#0 771467599#0 224821292#0 1147624737#0 1147624737#1"/>
    </vehicle>
    <vehicle id="car_29" type="car" depart="43.50" departLane="free" departSpeed="max">
        <route edges="961539471 961539472 236811148 236811149#0 1451328237#0 E1 1323631883 430532793 430532795"/>
    </vehicle>
    <vehicle id="car_30" type="car" depart="45.00" departLane="free" departSpeed="max">
        <route edges="200568455#0 227216231#0 236818215 236818214 187938710#0 169400609#0 224821293#0 224821293#2 1232799370 1232799371#2 1232799371#4 277203712 236809165"/>
    </vehicle>
    <vehicle id="car_31" type="car" depart="46.50" departLane="free" departSpeed="max">
        <route edges="29114711#0.184 1362017843 1362017842 313992354#0 313992354#1 1362017841 313992351#0 E2 287311357#0 432309716#0 287956206#2 1451328237#0 E1 1323631883 430532793 -407552210#1"/>
    </vehicle>
    <vehicle id="car_32" type="car" depart="48.00" departLane="free" departSpeed="max">
        <route edges="200568455#0 227216231#0 236818215 236818214 187938710#0 27348585#0 61316915 187938712 287311363#0 1348067247 1348067246#0 287311364 236825277 -1316855122#3"/>
    </vehicle>
    <vehicle id="car_33" type="car" depart="49.50" departLane="free" departSpeed="max">
        <route edges="1362019276 29092803 942711932#0 61316958 236818220#0 287956206#2 1271126935 187938713#0"/>
    </vehicle>
    <vehicle id="car_34" type="car" depart="51.00" departLane="free" departSpeed="max">
        <route edges="1362017841 313992351#0 E2 287311357#0 27348585#0"/>
    </vehicle>
    <vehicle id="car_35" type="car" depart="52.50" departLane="free" departSpeed="max">
        <route edges="61293002 61293002.258 236825276 291941452 942711943 1347887395 255904385#0 61316958 236818220#0 287956206#2 1451328237#0 E1 1323631883 430532793 -407552210#1"/>
    </vehicle>
    <vehicle id="car_36" type="car" depart="54.00" departLane="free" departSpeed="max">
        <route edges="277203721 277203724 200568452#0"/>
    </vehicle>
    <vehicle id="car_37" type="car" depart="55.50" departLane="free" departSpeed="max">
        <route edges="200568455#0 227216231#0 236818215 236818214 161297931#0 432309716#0 287956206#2 1451328237#0 E1 1323631883 430532793 430532795"/>
    </vehicle>
    <vehicle id="car_38" type="car" depart="57.00" departLane="free" departSpeed="max">
        <route edges="27348585#0 61316915 187938712 287311363#0 1348067247 1348067246#0 287311364 27476746 291941452 942711943 1347887395 255904385#0 61316958 236818220#0 287956206#2 1271126935 169400610#0 771467599#0 224821292#0 1147624737#0 1147624737#1"/>
    </vehicle>
    <vehicle id="car_39" type="car" depart="58.50" departLane="free" departSpeed="max">
        <route edges="287311363#0 1348067247 1348067246#0 287311364 27476746 291941452 942711943 1347887395 255904385#0 61316958 236818221#0"/>
    </vehicle>
    <vehicle id="car_40" type="car" depart="60.00" departLane="free" departSpeed="max">
        <route edges="161297934 1362019276 29092803 942711932#0 61316958 236818220#0 287956206#2 1271126935 187938713#0 287311357#0 27348585#0 61316915 187938712 287311363#0 1348067247 1348067246#0"/>
    </vehicle>
    <vehicle id="car_41" type="car" depart="61.50" departLane="free" departSpeed="max">
        <route edges="E2 287311357#0 169400609#0 224821293#0 224821293#2 1232799370 1232799371#2 1232799371#4 277203712 236809165"/>
    </vehicle>
    <vehicle id="car_42" type="car" depart="63.00" departLane="free" departSpeed="max">
        <route edges="161297931#0 432309716#0 287956206#2 1271126935 169400610#0 771467599#0 224821292#0 1147624737#0 1147624737#1"/>
    </vehicle>
    <vehicle id="car_43" type="car" depart="64.50" departLane="free" departSpeed="max">
        <route edges="187938712 287311363#0 1348067247 1348067246#0 287311364 27476746 291941452 942711943 1347887395 255904385#0 61316958 236818220#0 287956206#2 1271126935 169400610#0 771467599#0 224821292#0 1147624737#0 1147624737#1"/>
    </vehicle>
    <vehicle id="car_44" type="car" depart="66.00" departLane="free" departSpeed="max">
        <route edges="1362017841 313992351#0 E2 287311357#0 169400609#0 224821293#0 224821293#2 1232799370 1232799371#2 1232799371#4 277203712 236809165"/>
    </vehicle>
    <vehicle id="car_45" type="car" depart="67.50" departLane="free" departSpeed="max">
        <route edges="187938712 287311363#0 1348067247 1348067246#0 287311364 27476746 291941452 942711943 1347887395 255904385#0 61316958 236818220#0 287956206#2 1451328237#0 E1 1323631883 430532793 430532795"/>
    </vehicle>
    <vehicle id="car_46" type="car" depart="69.00" departLane="free" departSpeed="max">
        <route edges="61316958 236818220#0 287956206#2 1271126935 187938713#0 287311357#0 27348585#0 61316915 187938712 287311363#0 1348067247 1348067246#0 287311364 236825277 -1316855122#3"/>
    </vehicle>
    <vehicle id="car_47" type="car" depart="70.50" departLane="free" departSpeed="max">
        <route edges="169400610#0 E2 287311357#0 432309716#0 287956206#2 1451328237#0 E1 1323631883 430532793 -407552210#1"/>
    </vehicle>
    <vehicle id="car_48" type="car" depart="72.00" departLane="free" departSpeed="max">
        <route edges="61293002 61293002.258 236825276 291941452 942711943 1347887395 255904385#0 61316958 236818220#0 287956206#2 1271126935 169400610#0 771467599#0 224821292#0 1147624737#0"/>
    </vehicle>
    <vehicle id="car_49" type="car" depart="73.50" departLane="free" departSpeed="max">
        <route edges="27348585#0 61316915 187938712 287311363#0 1348067247 1348067246#0 287311364 27476746 291941452 942711943 1347887395 255904385#0 61316958 236818220#0 287956206#2 1271126935 169400610#0"/>
    </vehicle>
    <vehicle id="car_50" type="car" depart="75.00" departLane="free" departSpeed="max">
        <route edges="61316958 236818220#0 287956206#2 1271126935 169400610#0 771467599#0 224821292#0 1147624737#0 1147624737#1"/>
    </vehicle>
    <vehicle id="car_51" type="car" depart="76.50" departLane="free" departSpeed="max">
        <route edges="27348585#0 61316915 187938712 287311363#0 1348067247 1348067246#0 287311364 27476746 291941452 942711943 1347887395 255904385#0 61316958 236818221#0 224821293#2 1232799370"/>
    </vehicle>
    <vehicle id="car_52" type="car" depart="78.00" departLane="free" departSpeed="max">
        <route edges="287956206#2 1271126935 187938713#0 287311357#0 27348585#0 61316915 187938712 287311363#0 1348067247 1348067246#0 287311364 236825277 -1316855122#3"/>
    </vehicle>
    <vehicle id="car_53" type="car" depart="79.50" departLane="free" departSpeed="max">
        <route edges="E2 287311357#0 432309716#0 287956206#2 1451328237#0 E1 1323631883 430532793 430532795"/>
    </vehicle>
    <vehicle id="car_54" type="car" depart="81.00" departLane="free" departSpeed="max">
        <route edges="236825277 -1316855122#3"/>
    </vehicle>
    <vehicle id="car_55" type="car" depart="82.50" departLane="free" departSpeed="max">
        <route edges="200568455#0 227216231#0 236818215 236818214 161297931#0 432309716#0 287956206#2 1271126935 187938713#0 287311357#0"/>
    </vehicle>
    <vehicle id="car_56" type="car" depart="84.00" departLane="free" departSpeed="max">
        <route edges="961539471 961539472 236811148 236811149#0 1271126935 169400610#0 E2"/>
    </vehicle>
    <vehicle id="car_57" type="car" depart="85.50" departLane="free" departSpeed="max">
        <route edges="161297934 1362019276 29092803 942711932#0 61316958 236818220#0 287956206#2 1271126935"/>
    </vehicle>
    <vehicle id="car_58" type="car" depart="87.00" departLane="free" departSpeed="max">
        <route edges="287956205 25126523"/>
    </vehicle>
    <vehicle id="car_59" type="car" depart="88.50" departLane="free" departSpeed="max">
        <route edges="1362017843 1362017842 313992354#0 313992354#1 1362017841 153776638#0 153776638#0.87 224821292#0 1147624737#0"/>
    </vehicle>
    <vehicle id="car_60" type="car" depart="90.00" departLane="free" departSpeed="max">
        <route edges="29114711#0.184 1362017843 1362017842 313992354#0 313992354#1 1362017841 313992351#0 E2 287311357#0 169400609#0 224821293#0 224821293#2 1232799370 1232799371#2 1232799371#4 277203712 236809165"/>
    </vehicle>
    <vehicle id="car_61" type="car" depart="91.50" departLane="free" departSpeed="max">
        <route edges="187938713#0 287311357#0 432309716#0 287956206#2 1451328237#0 E1 1323631883 430532793 -407552210#1"/>
    </vehicle>
    <vehicle id="car_62" type="car" depart="93.00" departLane="free" departSpeed="max">
        <route edges="942711943 1347887395 255904385#0 61316958 236818220#0 287956206#2 1271126935 169400610#0 771467599#0 224821292#0 1147624737#0 1147624737#1"/>
    </vehicle>
    <vehicle id="car_63" type="car" depart="94.50" departLane="free" departSpeed="max">
        <route edges="29114711#0.184 1362017843 1362017842 313992354#0 313992354#1 1362017841 313992351#0 E2 287311357#0 169400609#0 224821293#0 224821293#2 1232799370 1232799371#2 1232799371#4 277203712 236809165"/>
    </vehicle>
    <vehicle id="car_64" type="car" depart="96.00" departLane="free" departSpeed="max">
        <route edges="196662201 942711933 196664103 1362019277 1362020490"/>
    </vehicle>
    <vehicle id="car_65" type="car" depart="97.50" departLane="free" departSpeed="max">
        <route edges="200568455#0 227216231#0 236818215 236818214 187938710#0 27348585#0 61316915 287956205 25126523"/>
    </vehicle>
    <vehicle id="car_66" type="car" depart="99.00" departLane="free" departSpeed="max">
        <route edges="E2"/>
    </vehicle>
    <vehicle id="car_67" type="car" depart="100.50" departLane="free" departSpeed="max">
        <route edges="1362017842 313992354#0 313992354#1 1362017841 153776638#0 153776638#0.87 224821292#0 1147624737#0 1147624737#1"/>
    </vehicle>
    <vehicle id="car_68" type="car" depart="102.00" departLane="free" departSpeed="max">
        <route edges="200568455#0 227216231#0 236818215 236818214 187938710#0 27348585#0 61316915 187938712 287311363#0 1348067247 1348067246#0 287311364 27476746 291941452 291941449 1232964862 27476764#0 -1348067248 61295588#0"/>
    </vehicle>
    <vehicle id="car_69" type="car" depart="103.50" departLane="free" departSpeed="max">
        <route edges="236811149#0 1451328237#0 E1 1323631883 430532793 -407552210#1"/>
    </vehicle>
    <vehicle id="car_70" type="car" depart="105.00" departLane="free" departSpeed="max">
        <route edges="313992354#1 1362017841 313992351#0 E2 287311357#0 27348585#0 61316915 187938712 287311363#0 1348067247 1348067246#0 287311364 236825277 -1316855122#3"/>
    </vehicle>
    <vehicle id="car_71" type="car" depart="106.50" departLane="free" departSpeed="max">
        <route edges="61293002 61293002.258 236825276 291941452 942711943 1347887395 255904385#0 61316958 236818220#0 287956206#2 1451328237#0 E1 1323631883"/>
    </vehicle>
    <vehicle id="car_72" type="car" depart="108.00" departLane="free" departSpeed="max">
        <route edges="161297934 1362019276 29092803 942711932#0 61316958 236818220#0 287956206#2 1451328237#0 E1 1323631883 430532793 -407552210#1"/>
    </vehicle>
    <vehicle id="car_73" type="car" depart="109.50" departLane="free" departSpeed="max">
        <route edges="200568455#0 227216231#0 236818215 236818214 187938710#0 169400609#0 224821293#0 224821293#2"/>
    </vehicle>
    <vehicle id="car_74" type="car" depart="111.00" departLane="free" departSpeed="max">
        <route edges="29114711#0.184 1362017843 1362017842 313992354#0 313992354#1 1362017841 153776638#0 153776638#0.87 224821292#0 1147624737#0 1147624737#1"/>
    </vehicle>
    <vehicle id="car_75" type="car" depart="112.50" departLane="free" departSpeed="max">
        <route edges="27348585#0 61316915 187938712 287311363#0 1348067247 1348067246#0 287311364 27476746 291941452 942711943 1347887395 255904385#0 61316958 236818221#0 224821293#2 1232799370"/>
    </vehicle>
    <vehicle id="car_76" type="car" depart="114.00" departLane="free" departSpeed="max">
        <route edges="29114711#0.184 1362017843 1362017842 313992354#0 313992354#1 1362017841 153776638#0 153776638#0.87 224821292#0 1147624737#0 1147624737#1"/>
    </vehicle>
    <vehicle id="car_77" type="car" depart="115.50" departLane="free" departSpeed="max">
        <route edges="1362017842 313992354#0 313992354#1 1362017841 313992351#0 E2 287311357#0 432309716#0 287956206#2 1451328237#0 E1 1323631883 430532793 430532795"/>
    </vehicle>
    <vehicle id="car_78" type="car" depart="117.00" departLane="free" departSpeed="max">
        <route edges="161297934 1362019276 29092803 942711932#0 61316958 236818220#0 287956206#2 1451328237#0 E1 1323631883 430532793 -407552210#1"/>
    </vehicle>
    <vehicle id="car_79" type="car" depart="118.50" departLane="free" departSpeed="max">
        <route edges="200568455#0 227216231#0 236818215 236818214 161297931#0 432309716#0 287956206#2 1451328237#0 E1 1323631883 430532793 430532795"/>
    </vehicle>
    <vehicle id="car_80" type="car" depart="120.00" departLane="free" departSpeed="max">
        <route edges="61293002 61293002.258 236825276 291941452 942711943 1347887395 255904385#0 61316958 236818220#0 287956206#2 1451328237#0 E1 1323631883 430532793 430532795"/>
    </vehicle>
    <vehicle id="car_81" type="car" depart="121.50" departLane="free" departSpeed="max">
        <route edges="961539471 961539472 236811148 236811149#0 1271126935 169400610#0 771467599#0 224821292#0 1147624737#0 1147624737#1"/>
    </vehicle>
    <vehicle id="car_82" type="car" depart="123.00" departLane="free" departSpeed="max">
        <route edges="61293002 61293002.258 236825276 291941452 942711943 1347887395 255904385#0 61316958 236818220#0 287956206#2 1451328237#0 E1 1323631883 430532793 430532795"/>
    </vehicle>
    <vehicle id="car_83" type="car" depart="124.50" departLane="free" departSpeed="max">
        <route edges="61316958 236818220#0 287956206#2 1271126935 187938713#0 287311357#0 27348585#0 61316915 187938712 287311363#0 1348067247 1348067246#0 287311364 27476746 291941452 942711943"/>
    </vehicle>
    <vehicle id="car_84" type="car" depart="126.00" departLane="free" departSpeed="max">
        <route edges="61293002 61293002.258 236825276 291941452 942711943 1347887395 255904385#0 61316958 236818220#0 287956206#2 1451328237#0 E1 1323631883 430532793 430532795"/>
    </vehicle>
    <vehicle id="car_85" type="car" depart="127.50" departLane="free" departSpeed="max">
        <route edges="61293002 61293002.258 236825276 291941452 942711943 1347887395 255904385#0 61316958 236818220#0 287956206#2 1451328237#0 E1 1323631883 430532793 430532795"/>
    </vehicle>
    <vehicle id="car_86" type="car" depart="129.00" departLane="free" departSpeed="max">
        <route edges="61293002 61293002.258 236825276 291941452 942711943 1347887395 255904385#0 61316958 236818220#0 287956206#2 1271126935 169400610#0 771467599#0 224821292#0 1147624737#0 1147624737#1"/>
    </vehicle>
    <vehicle id="car_87" type="car" depart="130.50" departLane="free" departSpeed="max">
        <route edges="61293002 61293002.258 236825276 291941452 942711943 1347887395 255904385#0 61316958 236818220#0 287956206#2 1451328237#0 E1 1323631883 430532793 -407552210#1"/>
    </vehicle>
    <vehicle id="car_88" type="car" depart="132.00" departLane="free" departSpeed="max">
        <route edges="942711932#0 61316958 236818220#0 287956206#2 1451328237#0 E1 1323631883 430532793 430532795"/>
    </vehicle>
    <vehicle id="car_89" type="car" depart="133.50" departLane="free" departSpeed="max">
        <route edges="61293002 61293002.258 236825276 291941452 942711943 1347887395 255904385#0 61316958 236818220#0 287956206#2 1271126935 169400610#0 771467599#0 224821292#0 1147624737#0 1147624737#1"/>
    </vehicle>
    <vehicle id="car_90" type="car" depart="135.00" departLane="free" departSpeed="max">
        <route edges="200568455#0 227216231#0 236818215 236818214 161297931#0 432309716#0 287956206#2 1451328237#0 E1 1323631883 430532793 430532795"/>
    </vehicle>
    <vehicle id="car_91" type="car" depart="136.50" departLane="free" departSpeed="max">
        <route edges="961539471 961539472 236811148 153776637#0 E0 224821293#2 1232799370"/>
    </vehicle>
    <vehicle id="car_92" type="car" depart="138.00" departLane="free" departSpeed="max">
        <route edges="313992351#0 E2 287311357#0 27348585#0 61316915 287956205 25126523 1362019277 1362020490"/>
    </vehicle>
    <vehicle id="car_93" type="car" depart="139.50" departLane="free" departSpeed="max">
        <route edges="961539471 961539472 236811148 236811149#0 1451328237#0 E1 1323631883 430532793 -407552210#1"/>
    </vehicle>
    <vehicle id="car_94" type="car" depart="141.00" departLane="free" departSpeed="max">
        <route edges="961539471 961539472 236811148 236811149#0 1451328237#0 E1 1323631883 430532793 -407552210#1"/>
    </vehicle>
    <vehicle id="car_95" type="car" depart="142.50" departLane="free" departSpeed="max">
        <route edges="961539471 961539472 236811148 236811149#0 1271126935 169400610#0 771467599#0 224821292#0 1147624737#0 1147624737#1"/>
    </vehicle>
    <vehicle id="car_96" type="car" depart="144.00" departLane="free" departSpeed="max">
        <route edges="200568455#0 227216231#0 236818215 236818214"/>
    </vehicle>
    <vehicle id="car_97" type="car" depart="145.50" departLane="free" departSpeed="max">
        <route edges="287311363#0 1348067247 1348067246#0 287311364 27476746 291941452 942711943 1347887395 255904385#0 61316958 236818220#0"/>
    </vehicle>
    <vehicle id="car_98" type="car" depart="147.00" departLane="free" departSpeed="max">
        <route edges="236811148 236811149#0 1271126935 187938713#0 287311357#0 27348585#0 61316915 187938712 287311363#0 1348067247 1348067246#0 287311364 236825277 -1316855122#3"/>
    </vehicle>
    <vehicle id="car_99" type="car" depart="148.50" departLane="free" departSpeed="max">
        <route edges="200568455#0 227216231#0 236818215 236818214 161297931#0 432309716#0 287956206#2 1451328237#0 E1 1323631883 430532793 430532795"/>
    </vehicle>
    <vehicle id="car_100" type="car" depart="150.00" departLane="free" departSpeed="max">
        <route edges="200568455#0 227216231#0 236818215 236818214 187938710#0 27348585#0 61316915 287956205 25126523 1362019277 1362020490"/>
    </vehicle>
    <vehicle id="car_101" type="car" depart="151.50" departLane="free" departSpeed="max">
        <route edges="161297934 1362019276 29092803 942711932#0 61316958 236818220#0 287956206#2 1271126935 187938713#0 287311357#0 27348585#0 61316915 287956205 25126523 1362019277 1362020490"/>
    </vehicle>
    <vehicle id="car_102" type="car" depart="153.00" departLane="free" departSpeed="max">
        <route edges="961539471 961539472 236811148 153776637#0 E0 224821293#2 1232799370 1232799371#2 1232799371#4 277203712 236809165"/>
    </vehicle>
    <vehicle id="car_103" type="car" depart="154.50" departLane="free" departSpeed="max">
        <route edges="961539471 961539472 236811148 153776637#0 E0 224821293#2 1232799370 1232799371#2 1232799371#4 277203712 236809165"/>
    </vehicle>
    <vehicle id="car_104" type="car" depart="156.00" departLane="free" departSpeed="max">
        <route edges="313992354#1 1362017841 313992351#0 E2 287311357#0 169400609#0"/>
    </vehicle>
    <vehicle id="car_105" type="car" depart="157.50" departLane="free" departSpeed="max">
        <route edges="61293002 61293002.258 236825276 291941452 942711943 1347887395 255904385#0 61316958 236818220#0 287956206#2 1451328237#0 E1 1323631883 430532793 -407552210#1"/>
    </vehicle>
    <vehicle id="car_106" type="car" depart="159.00" departLane="free" departSpeed="max">
        <route edges="29114711#0.184 1362017843"/>
    </vehicle>
    <vehicle id="car_107" type="car" depart="160.50" departLane="free" departSpeed="max">
        <route edges="61293002 61293002.258 236825276 291941452 291941449 1232964862 27476764#0 -1348067248 61295588#0 25126523"/>
    </vehicle>
    <vehicle id="car_108" type="car" depart="162.00" departLane="free" departSpeed="max">
        <route edges="161297934 1362019276 29092803 432309717 -27476683 942711942 1232964862 1232964863 287311364 236825277 -1316855122#3"/>
    </vehicle>
    <vehicle id="car_109" type="car" depart="163.50" departLane="free" departSpeed="max">
        <route edges="161297934 1362019276 29092803 942711932#0 61316958 236818221#0 224821293#2 1232799370 1232799371#2 1232799371#4 277203712 236809165"/>
    </vehicle>
    <vehicle id="car_110" type="car" depart="165.00" departLane="free" departSpeed="max">