<?xml version="1.0" encoding="UTF-8"?>

<!-- generated on 2026-03-26T19:57:47.278702+01:00 by Eclipse SUMO netedit 1.26.0
-->

<routes xmlns:xsi="http://www.w3.org/2001/XMLSchema-instance" xsi:noNamespaceSchemaLocation="http://sumo.dlr.de/xsd/routes_file.xsd">
    <!-- VTypes -->
    <vType id="emergency" length="5.50" maxSpeed="13.89" speedFactor="normc(1.50,0.00)" vClass="emergency" emissionClass="HBEFA3/PC_G_EU4" guiShape="emergency" color="red" accel="4.0" decel="6.0" sigma="0.2">
        <param key="has.bluelight.device" value="true"/>
    </vType>
    <!-- Vehicles, persons and containers (sorted by depart) -->
    <vehicle id="emergency_0" type="emergency" depart="0.00">
        <route edges="287311357#0 27348585#0 61316915 187938712 287311363#0 1348067247 1348067246#0 287311364 27476746 291941452 291941449 1232964862 27476764#0 -1348067248"/>
    </vehicle>
    <vehicle id="emergency_1" type="emergency" depart="1800.00">
        <route edges="313992354#1 1362017841 313992351#0 287311357#0 27348585#0 61316915 187938712 287311363#0 1348067247 1348067246#0 287311364 27476746 291941452 942711943 1347887395 255904385#0 61316958 236818220#0"/>
    </vehicle>
</routes>
