<?xml version="1.0" encoding="UTF-8"?>

<!-- generated on 2026-03-20 11:48:11.222155 by Eclipse SUMO randomTrips.py v1_26_0+0000-fa7df22d7f1
<configuration>
    <net-file value="network\osm.net.xml"/>
    <additional-files value="demand\vtypes.add.xml"/>
    <output-trip-file value="demand\emergency.trips.xml"/>
    <route-file value="demand\emergency.rou.xml"/>
    <prefix value="emergency_"/>
    <trip-attributes value="type='emergency'"/>
    <lanes value="True"/>
    <fringe-factor value="5.0"/>
    <edge-permission value="emergency"/>
    <period value="1800.0"/>
    <poisson value="True"/>
</configuration>
-->

<!-- generated on 2026-03-20T11:48:11.144256+01:00 by Eclipse SUMO duarouter 1.26.0
<duarouterConfiguration xmlns:xsi="http://www.w3.org/2001/XMLSchema-instance" xsi:noNamespaceSchemaLocation="http://sumo.dlr.de/xsd/duarouterConfiguration.xsd">

    <input>
        <net-file value="network\osm.net.xml"/>
        <additional-files value="demand\vtypes.add.xml"/>
        <route-files value="demand\emergency.trips.xml"/>
    </input>

    <output>
        <output-file value="demand\emergency.rou.xml"/>
        <alternatives-output value="NUL"/>
    </output>

    <time>
        <begin value="0"/>
        <end value="3600.0"/>
    </time>

    <report>
        <no-warnings value="true"/>
        <ignore-errors value="true"/>
        <no-step-log value="true"/>
    </report>

</duarouterConfiguration>
-->

<routes xmlns:xsi="http://www.w3.org/2001/XMLSchema-instance" xsi:noNamespaceSchemaLocation="http://sumo.dlr.de/xsd/routes_file.xsd">
    <vType id="emergency" length="5.50" maxSpeed="13.89" speedFactor="1.50" vClass="emergency" emissionClass="HBEFA3/PC_G_EU4" guiShape="emergency" color="red" accel="4.0" decel="6.0" sigma="0.2">
        <param key="has.bluelight.device" value="true"/>
    </vType>
    <vehicle id="emergency_0" type="emergency" depart="0.00">
        <route edges="287311357#0 27348585#0 61316915 187938712 287311363#0 1348067247 1348067246#0 287311364 27476746 291941452 291941449 1232964862 27476764#0 -1348067248"/>
    </vehicle>
    <vehicle id="emergency_1" type="emergency" depart="1800.00">
        <route edges="313992354#1 1362017841 313992351#0 287311357#0 27348585#0 61316915 187938712 287311363#0 1348067247 1348067246#0 287311364 27476746 291941452 942711943 1347887395 255904385#0 61316958 236818220#0"/>
    </vehicle>
</routes>
