<?xml version="1.0" encoding="UTF-8"?>

<!-- generated on 2026-03-26T19:57:47.280194+01:00 by Eclipse SUMO netedit 1.26.0
-->

<routes xmlns:xsi="http://www.w3.org/2001/XMLSchema-instance" xsi:noNamespaceSchemaLocation="http://sumo.dlr.de/xsd/routes_file.xsd">
    <!-- VTypes -->
    <vType id="motorcycle" length="2.20" maxSpeed="13.89" vClass="motorcycle" emissionClass="HBEFA3/PC_G_EU3" guiShape="motorcycle" width="0.90" color="yellow" lcStrategic="0.5" lcCooperative="1.2" lcSpeedGain="3.8" lcAssertive="1.5" accel="5.0" decel="7.0" sigma="0.7"/>
    <!-- Vehicles, persons and containers (sorted by depart) -->
    <vehicle id="motorcycle_0" type="motorcycle" depart="0.00">
        <route edges="287311357#0 27348585#0 61316915 187938712 287311363#0 1348067247 1348067246#0 287311364 27476746 291941452 291941449 1232964862 27476764#0 -1348067248"/>
    </vehicle>
    <vehicle id="motorcycle_1" type="motorcycle" depart="120.00">
        <route edges="961539471 961539472 236811148 236811149#0 1271126935 169400610#0 224821292#0 1147624737#0 1147624737#1"/>
    </vehicle>
    <vehicle id="motorcycle_2" type="motorcycle" depart="240.00">
        <route edges="161297934 1362019276 29092803 942711932#0 61316958 236818221#0 224821293#2"/>
    </vehicle>
    <vehicle id="motorcycle_3" type="motorcycle" depart="360.00">
        <route edges="287311363#0 1348067247 1348067246#0 287311364 27476746 291941452 942711943 1347887395 255904385#0 61316958 236818221#0 224821293#2 1232799370 1232799371#2 1232799371#4 277203712 236809165"/>
    </vehicle>
    <vehicle id="motorcycle_4" type="motorcycle" depart="480.00">
        <route edges="61293002 61293002.258 236825276 291941452 291941449 1232964862 1232964863 287311364 236825277 -1316855122#3"/>
    </vehicle>
    <vehicle id="motorcycle_5" type="motorcycle" depart="600.00">
        <route edges="200568455#0 227216231#0 236818215 236818214 187938710#0 169400609#0 224821293#2 1232799370 1232799371#2"/>
    </vehicle>
    <vehicle id="motorcycle_6" type="motorcycle" depart="720.00">
        <route edges="432309717 -27476683 942711942 1232964862 27476764#0"/>
    </vehicle>
    <vehicle id="motorcycle_7" type="motorcycle" depart="840.00">
        <route edges="27348585#0 61316915 187938712 287311363#0 1348067247 1348067246#0 287311364 27476746 291941452 942711943"/>
    </vehicle>
    <vehicle id="motorcycle_8" type="motorcycle" depart="960.00">
        <route edges="224821293#2 1232799370 1232799371#2 1232799371#4 277203712 236809165"/>
    </vehicle>
    <vehicle id="motorcycle_9" type="motorcycle" depart="1080.00">
        <route edges="61316958 236818221#0 224821293#2 1232799370 1232799371#2 1232799371#4 277203712 236809165"/>
    </vehicle>
    <vehicle id="motorcycle_11" type="motorcycle" depart="1320.00">
        <route edges="161297934 1362019276 29092803 942711932#0 61316958 236818220#0 287956206#2 1271126935 187938713#0 287311357#0 27348585#0 61316915 287956205 25126523 1362019277 1362020490"/>
    </vehicle>
    <vehicle id="motorcycle_12" type="motorcycle" depart="1440.00">
        <route edges="1348067246#0 287311364 27476746 291941452 291941449 1232964862 27476764#0 -1348067248 61295588#0 25126523 1362019277 1362020490"/>
    </vehicle>
    <vehicle id="motorcycle_13" type="motorcycle" depart="1560.00">
        <route edges="187938710#0 27348585#0 61316915 187938712 287311363#0 1348067247 1348067246#0 287311364 27476746 291941452 942711943 1347887395 255904385#0 61316958"/>
    </vehicle>
    <vehicle id="motorcycle_14" type="motorcycle" depart="1680.00">
        <route edges="61316915 187938712 287311363#0"/>
    </vehicle>
    <vehicle id="motorcycle_16" type="motorcycle" depart="1920.00">
        <route edges="200568455#0 227216231#0 236818215 236818214 187938710#0 27348585#0 61316915 287956205 25126523 1362019277"/>
    </vehicle>
    <vehicle id="motorcycle_17" type="motorcycle" depart="2040.00">
        <route edges="161297934 1362019276 29092803 942711932#0 61316958"/>
    </vehicle>
    <vehicle id="motorcycle_20" type="motorcycle" depart="2400.00">
        <route edges="29114711#0.184 1362017843 1362017842.95 313992354#0 313992354#1 1362017841 313992351#0 287311357#0 169400609#0 224821293#2 1232799370 1232799371#2 1232799371#4 277203712 236809165"/>
    </vehicle>
    <vehicle id="motorcycle_21" type="motorcycle" depart="2520.00">
        <route edges="942711932#0 61316958 236818220#0 287956206#2 1271126935 187938713#0 287311357#0 27348585#0 61316915 287956205 25126523 1362019277"/>
    </vehicle>
    <vehicle id="motorcycle_23" type="motorcycle" depart="2760.00">
        <route edges="200568455#0 227216231#0 236818215 236818214 161297931#0 432309716#0 287956206#2 1271126935 169400610#0 224821292#0 1147624737#0"/>
    </vehicle>
    <vehicle id="motorcycle_24" type="motorcycle" depart="2880.00">
        <route edges="1271126935 187938713#0 287311357#0"/>
    </vehicle>
    <vehicle id="motorcycle_25" type="motorcycle" depart="3000.00">
        <route edges="236818215 236818214 187938710#0 169400609#0 224821293#2 1232799370 1232799371#2 1232799371#4 277203712 236809165"/>
    </vehicle>
    <vehicle id="motorcycle_27" type="motorcycle" depart="3240.00">
        <route edges="236811148 236811149#0 1271126935 187938713#0 287311357#0 27348585#0 61316915 187938712 287311363#0 1348067247 1348067246#0"/>
    </vehicle>
    <vehicle id="motorcycle_28" type="motorcycle" depart="3360.00">
        <route edges="27348585#0 61316915 187938712 287311363#0 1348067247 1348067246#0 287311364 27476746 291941452 291941449 1232964862 27476764#0"/>
    </vehicle>
    <vehicle id="motorcycle_29" type="motorcycle" depart="3480.00">
        <route edges="161297934 1362019276 29092803 942711932#0 61316958 236818220#0 287956206#2 1271126935 187938713#0 287311357#0 27348585#0 61316915 287956205 25126523 1362019277 1362020490"/>
    </vehicle>
</routes>
