<?xml version="1.0" encoding="UTF-8"?>

<!-- generated on 2026-03-14 18:23:27.223357 by Eclipse SUMO tlsCycleAdaptation.py v1_26_0+0000-fa7df22d7f1
<configuration>
    <net-file value="C:\Users\breje\Desktop\projektKoncowy\simulation\network\osm.net.xml"/>
    <output-file value="C:\Users\breje\Desktop\projektKoncowy\simulation\tlsAdaptation.add.xml"/>
    <route-files value="C:\Users\breje\Desktop\projektKoncowy\simulation\demand\cars.rou.xml"/>
    <all-red value="1"/>
    <unified-cycle value="True"/>
    <verbose value="True"/>
</configuration>
-->

<additional xmlns:xsi="http://www.w3.org/2001/XMLSchema-instance" xsi:noNamespaceSchemaLocation="http://sumo.dlr.de/xsd/additional_file.xsd">
    <tlLogic id="280272723" type="actuated" programID="a" offset="0">
        <phase duration="16" state="GGGGGrrrrrr"/>
        <phase duration="16" state="GGGGGgrrrrr"/>
        <phase duration="4" state="yyyyyyrrrrr"/>
        <phase duration="6" state="rrrrrGGGGGG"/>
        <phase duration="4" state="rrrrryyyyyy"/>
    </tlLogic>
    <tlLogic id="301681267" type="actuated" programID="a" offset="3">
        <phase duration="8" state="GGGr"/>
        <phase duration="4" state="yyyr"/>
        <phase duration="1" state="rrrr"/>
        <phase duration="34" state="rrrG"/>
        <phase duration="4" state="rrry"/>
        <phase duration="1" state="rrrr"/>
    </tlLogic>
    <tlLogic id="4313891394" type="static" programID="a" offset="0">
        <phase duration="46" state="GG"/>
        <phase duration="3" state="yy"/>
        <phase duration="30" state="rr"/>
        <phase duration="3" state="yy"/>
    </tlLogic>
    <tlLogic id="GS_1664172659" type="actuated" programID="a" offset="0">
        <phase duration="14" state="GGrrr"/>
        <phase duration="4" state="yyrrr"/>
        <phase duration="1" state="rrrrr"/>
        <phase duration="12" state="rrGGG"/>
        <phase duration="12" state="ggGGG"/>
        <phase duration="4" state="rryyy"/>
        <phase duration="1" state="rrrrr"/>
    </tlLogic>
    <tlLogic id="GS_1985727749" type="actuated" programID="a" offset="0">
        <phase duration="12" state="Gr"/>
        <phase duration="4" state="yr"/>
        <phase duration="30" state="rG"/>
        <phase duration="4" state="ry"/>
    </tlLogic>
    <tlLogic id="clusterJ11_J12_cluster1923923897_2447939514" type="actuated" programID="a" offset="0">
        <phase duration="6" state="GGGGGGGGrrrrrrG"/>
        <phase duration="4" state="yyyyyyyyrrrrrry"/>
        <phase duration="36" state="grrrrrrrGGgGGGr"/>
        <phase duration="4" state="yrrrrrrryyyyyyr"/>
        <phase duration="1" state="rrrrrrrrrrrrrrr"/>
    </tlLogic>
    <tlLogic id="clusterJ6_J9" type="actuated" programID="a" offset="0">
        <phase duration="10" state="GGrrrgg"/>
        <phase duration="4" state="GGrrryy"/>
        <phase duration="4" state="yyrrrrr"/>
        <phase duration="32" state="rrGGGGG"/>
        <phase duration="4" state="rryyyyy"/>
    </tlLogic>
    <tlLogic id="clusterJ7_clusterJ9_cluster1664172634_8729417981" type="actuated" programID="a" offset="0">
        <phase duration="10" state="rrGGGGrG"/>
        <phase duration="4" state="rryyyGrG"/>
        <phase duration="16" state="GGrrrGrG"/>
        <phase duration="4" state="yyrrryry"/>
        <phase duration="12" state="rrrrrrGr"/>
        <phase duration="4" state="rrrrrryr"/>
        <phase duration="1" state="rrrrrrrr"/>
    </tlLogic>
    <tlLogic id="clustercluster1923923898_26378754_cluster_1087952522_11804517184" type="actuated" programID="a" offset="0">
        <phase duration="4" state="rrGGGrrGG"/>
        <phase duration="4" state="rryyyrryy"/>
        <phase duration="21" state="GGrrrrrrr"/>
        <phase duration="4" state="yyrrrrrrr"/>
        <phase duration="1" state="rrrrrrrrr"/>
        <phase duration="13" state="rrGGGGGrr"/>
        <phase duration="4" state="rrGGGyyrr"/>
    </tlLogic>
</additional>
