<?xml version="1.0" encoding="UTF-8"?>

<!-- generated on 2026-03-14 11:42:10.928929 by Eclipse SUMO randomTrips.py v1_26_0+0000-fa7df22d7f1
<configuration>
    <net-file value=" simulation\network\osm.net.xml"/>
    <additional-files value=" simulation\demand\vtypes.add.xml"/>
    <output-trip-file value=" simulation\demand\trips.trips.xml"/>
    <route-file value=" simulation\demand\cars.rou.xml"/>
    <prefix value="car_"/>
    <trip-attributes value="type=&quot;car&quot;"/>
    <fringe-factor value="15.0"/>
    <verbose value="True"/>
    <period value="0.8"/>
</configuration>
-->

<routes xmlns:xsi="http://www.w3.org/2001/XMLSchema-instance" xsi:noNamespaceSchemaLocation="http://sumo.dlr.de/xsd/routes_file.xsd">
    <trip id="car_0" depart="0.00" from="29114711#0.184" to="-1316855122#3" type="car"/>
    <trip id="car_1" depart="0.80" from="200568455#0" to="1147624737#1" type="car"/>
    <trip id="car_2" depart="1.60" from="942711943" to="-1348067248" type="car"/>
    <trip id="car_3" depart="2.40" from="27348585#0" to="-1316855122#3" type="car"/>
    <trip id="car_4" depart="3.20" from="61293002" to="-1316855122#3" type="car"/>
    <trip id="car_5" depart="4.00" from="61293002.258" to="224821293#2" type="car"/>
    <trip id="car_6" depart="4.80" from="61293002" to="236818221#0" type="car"/>
    <trip id="car_7" depart="5.60" from="287311363#0" to="942711943" type="car"/>
    <trip id="car_8" depart="6.40" from="61293002" to="236809165" type="car"/>
    <trip id="car_9" depart="7.20" from="187938712" to="1232799371#4" type="car"/>
    <trip id="car_10" depart="8.00" from="1362017843" to="1147624737#1" type="car"/>
    <trip id="car_11" depart="8.80" from="29114711#0.184" to="1362020490" type="car"/>
    <trip id="car_12" depart="9.60" from="236811149#0" to="1147624737#1" type="car"/>
    <trip id="car_13" depart="10.40" from="200568455#0" to="61295588#0" type="car"/>
    <trip id="car_14" depart="11.20" from="161297934" to="236818221#0" type="car"/>
    <trip id="car_15" depart="12.00" from="161297934" to="1362020490" type="car"/>
    <trip id="car_16" depart="12.80" from="29114711#0.184" to="236809165" type="car"/>
    <trip id="car_17" depart="13.60" from="187938712" to="-1316855122#3" type="car"/>
    <trip id="car_18" depart="14.40" from="200568455#0" to="1147624737#1" type="car"/>
    <trip id="car_19" depart="15.20" from="942711932#0" to="1348067247" type="car"/>
    <trip id="car_20" depart="16.00" from="313992354#1" to="1362020490" type="car"/>
    <trip id="car_21" depart="16.80" from="200568455#0" to="1147624737#1" type="car"/>
    <trip id="car_22" depart="17.60" from="29114711#0.184" to="1147624737#1" type="car"/>
    <trip id="car_23" depart="18.40" from="29114711#0.184" to="430532795" type="car"/>
    <trip id="car_24" depart="19.20" from="61293002" to="1362020490" type="car"/>
    <trip id="car_25" depart="20.00" from="1348067247" to="1362020490" type="car"/>
    <trip id="car_26" depart="20.80" from="961539471" to="430532795" type="car"/>
    <trip id="car_27" depart="21.60" from="200568455#0" to="236809165" type="car"/>
    <trip id="car_28" depart="22.40" from="942711932#0" to="1147624737#1" type="car"/>
    <trip id="car_29" depart="23.20" from="961539471" to="430532795" type="car"/>
    <trip id="car_30" depart="24.00" from="200568455#0" to="236809165" type="car"/>
    <trip id="car_31" depart="24.80" from="29114711#0.184" to="-407552210#1" type="car"/>
    <trip id="car_32" depart="25.60" from="200568455#0" to="-1316855122#3" type="car"/>
    <trip id="car_33" depart="26.40" from="1362019276" to="187938713#0" type="car"/>
    <trip id="car_34" depart="27.20" from="1362017841" to="27348585#0" type="car"/>
    <trip id="car_35" depart="28.00" from="61293002" to="-407552210#1" type="car"/>
    <trip id="car_36" depart="28.80" from="277203721" to="200568452#0" type="car"/>
    <trip id="car_37" depart="29.60" from="200568455#0" to="430532795" type="car"/>
    <trip id="car_38" depart="30.40" from="27348585#0" to="1147624737#1" type="car"/>
    <trip id="car_39" depart="31.20" from="287311363#0" to="236818221#0" type="car"/>
    <trip id="car_40" depart="32.00" from="161297934" to="1348067246#0" type="car"/>
    <trip id="car_41" depart="32.80" from="E2" to="236809165" type="car"/>
    <trip id="car_42" depart="33.60" from="161297931#0" to="1147624737#1" type="car"/>
    <trip id="car_43" depart="34.40" from="187938712" to="1147624737#1" type="car"/>
    <trip id="car_44" depart="35.20" from="1362017841" to="236809165" type="car"/>
    <trip id="car_45" depart="36.00" from="187938712" to="430532795" type="car"/>
    <trip id="car_46" depart="36.80" from="61316958" to="-1316855122#3" type="car"/>
    <trip id="car_47" depart="37.60" from="169400610#0" to="-407552210#1" type="car"/>
    <trip id="car_48" depart="38.40" from="61293002" to="1147624737#0" type="car"/>
    <trip id="car_49" depart="39.20" from="27348585#0" to="169400610#0" type="car"/>
    <trip id="car_50" depart="40.00" from="61316958" to="1147624737#1" type="car"/>
    <trip id="car_51" depart="40.80" from="27348585#0" to="1232799370" type="car"/>
    <trip id="car_52" depart="41.60" from="287956206#2" to="-1316855122#3" type="car"/>
    <trip id="car_53" depart="42.40" from="E2" to="430532795" type="car"/>
    <trip id="car_54" depart="43.20" from="236825277" to="-1316855122#3" type="car"/>
    <trip id="car_55" depart="44.00" from="200568455#0" to="287311357#0" type="car"/>
    <trip id="car_56" depart="44.80" from="961539471" to="E2" type="car"/>
    <trip id="car_57" depart="45.60" from="161297934" to="1271126935" type="car"/>
    <trip id="car_58" depart="46.40" from="287956205" to="25126523" type="car"/>
    <trip id="car_59" depart="47.20" from="1362017843" to="1147624737#0" type="car"/>
    <trip id="car_60" depart="48.00" from="29114711#0.184" to="236809165" type="car"/>
    <trip id="car_61" depart="48.80" from="187938713#0" to="-407552210#1" type="car"/>
    <trip id="car_62" depart="49.60" from="942711943" to="1147624737#1" type="car"/>
    <trip id="car_63" depart="50.40" from="29114711#0.184" to="236809165" type="car"/>
    <trip id="car_64" depart="51.20" from="196662201" to="1362020490" type="car"/>
    <trip id="car_65" depart="52.00" from="200568455#0" to="25126523" type="car"/>
    <trip id="car_66" depart="52.80" from="E2" to="E2" type="car"/>
    <trip id="car_67" depart="53.60" from="1362017842" to="1147624737#1" type="car"/>
    <trip id="car_68" depart="54.40" from="200568455#0" to="61295588#0" type="car"/>
    <trip id="car_69" depart="55.20" from="236811149#0" to="-407552210#1" type="car"/>
    <trip id="car_70" depart="56.00" from="313992354#1" to="-1316855122#3" type="car"/>
    <trip id="car_71" depart="56.80" from="61293002" to="1323631883" type="car"/>
    <trip id="car_72" depart="57.60" from="161297934" to="-407552210#1" type="car"/>
    <trip id="car_73" depart="58.40" from="200568455#0" to="224821293#2" type="car"/>
    <trip id="car_74" depart="59.20" from="29114711#0.184" to="1147624737#1" type="car"/>
    <trip id="car_75" depart="60.00" from="27348585#0" to="1232799370" type="car"/>
    <trip id="car_76" depart="60.80" from="29114711#0.184" to="1147624737#1" type="car"/>
    <trip id="car_77" depart="61.60" from="1362017842" to="430532795" type="car"/>
    <trip id="car_78" depart="62.40" from="161297934" to="-407552210#1" type="car"/>
    <trip id="car_79" depart="63.20" from="200568455#0" to="430532795" type="car"/>
    <trip id="car_80" depart="64.00" from="61293002" to="430532795" type="car"/>
    <trip id="car_81" depart="64.80" from="961539471" to="1147624737#1" type="car"/>
    <trip id="car_82" depart="65.60" from="61293002" to="430532795" type="car"/>
    <trip id="car_83" depart="66.40" from="61316958" to="942711943" type="car"/>
    <trip id="car_84" depart="67.20" from="61293002" to="430532795" type="car"/>
    <trip id="car_85" depart="68.00" from="61293002" to="430532795" type="car"/>
    <trip id="car_86" depart="68.80" from="61293002" to="1147624737#1" type="car"/>
    <trip id="car_87" depart="69.60" from="61293002" to="-407552210#1" type="car"/>
    <trip id="car_88" depart="70.40" from="942711932#0" to="430532795" type="car"/>
    <trip id="car_89" depart="71.20" from="61293002" to="1147624737#1" type="car"/>
    <trip id="car_90" depart="72.00" from="200568455#0" to="430532795" type="car"/>
    <trip id="car_91" depart="72.80" from="961539471" to="1232799370" type="car"/>
    <trip id="car_92" depart="73.60" from="313992351#0" to="1362020490" type="car"/>
    <trip id="car_93" depart="74.40" from="961539471" to="-407552210#1" type="car"/>
    <trip id="car_94" depart="75.20" from="961539471" to="-407552210#1" type="car"/>
    <trip id="car_95" depart="76.00" from="961539471" to="1147624737#1" type="car"/>
    <trip id="car_96" depart="76.80" from="200568455#0" to="236818214" type="car"/>
    <trip id="car_97" depart="77.60" from="287311363#0" to="236818220#0" type="car"/>
    <trip id="car_98" depart="78.40" from="236811148" to="-1316855122#3" type="car"/>
    <trip id="car_99" depart="79.20" from="200568455#0" to="430532795" type="car"/>
    <trip id="car_100" depart="80.00" from="200568455#0" to="1362020490" type="car"/>
    <trip id="car_101" depart="80.80" from="161297934" to="1362020490" type="car"/>
    <trip id="car_102" depart="81.60" from="961539471" to="236809165" type="car"/>
    <trip id="car_103" depart="82.40" from="961539471" to="236809165" type="car"/>
    <trip id="car_104" depart="83.20" from="313992354#1" to="169400609#0" type="car"/>
    <trip id="car_105" depart="84.00" from="61293002" to="-407552210#1" type="car"/>
    <trip id="car_106" depart="84.80" from="29114711#0.184" to="1362017843" type="car"/>
    <trip id="car_107" depart="85.60" from="61293002" to="25126523" type="car"/>
    <trip id="car_108" depart="86.40" from="161297934" to="-1316855122#3" type="car"/>
    <trip id="car_109" depart="87.20" from="161297934" to="236809165" type="car"/>
    <trip id="car_110" depart="88.00" from="313992354#1" to="-1316855122#3" type="car"/>
    <trip id="car_111" depart="88.80" from="432309716#0" to="277203712" type="car"/>
    <trip id="car_112" depart="89.60" from="161297934" to="942711932#0" type="car"/>
    <trip id="car_113" depart="90.40" from="29114711#0.184" to="771467599#0" type="car"/>
    <trip id="car_114" depart="91.20" from="942711943" to="236809165" type="car"/>
    <trip id="car_115" depart="92.00" from="29114711#0.184" to="1147624737#1" type="car"/>
    <trip id="car_116" depart="92.80" from="1362017842" to="1232799371#2" type="car"/>
    <trip id="car_117" depart="93.60" from="200568455#0" to="1348067247" type="car"/>
    <trip id="car_118" depart="94.40" from="187938713#0" to="236809165" type="car"/>
    <trip id="car_119" depart="95.20" from="255904385#0" to="1147624737#1" type="car"/>
    <trip id="car_120" depart="96.00" from="255904385#0" to="430532795" type="car"/>
    <trip id="car_121" depart="96.80" from="29114711#0.184" to="236809165" type="car"/>
    <trip id="car_122" depart="97.60" from="61316915" to="27476764#0" type="car"/>
    <trip id="car_123" depart="98.40" from="236818215" to="-1316855122#3" type="car"/>
    <trip id="car_124" depart="99.20" from="255904385#0" to="25126523" type="car"/>
    <trip id="car_125" depart="100.00" from="287956206#2" to="224821293#2" type="car"/>
    <trip id="car_126" depart="100.80" from="187938710#0" to="1147624737#1" type="car"/>
    <trip id="car_127" depart="101.60" from="200568455#0" to="236809165" type="car"/>
    <trip id="car_128" depart="102.40" from="29114711#0.184" to="-1316855122#3" type="car"/>
    <trip id="car_129" depart="103.20" from="1232799370" to="236809165" type="car"/>
    <trip id="car_130" depart="104.00" from="161297934" to="169400609#0" type="car"/>
    <trip id="car_131" depart="104.80" from="61293002" to="1362020490" type="car"/>
    <trip id="car_132" depart="105.60" from="432309716#0" to="430532795" type="car"/>
    <trip id="car_133" depart="106.40" from="E2" to="1362020490" type="car"/>
    <trip id="car_134" depart="107.20" from="313992354#0" to="287311357#0" type="car"/>
    <trip id="car_135" depart="108.00" from="313992354#1" to="255904385#0" type="car"/>
    <trip id="car_136" depart="108.80" from="961539471" to="1147624737#1" type="car"/>
    <trip id="car_137" depart="109.60" from="161297934" to="236809165" type="car"/>
    <trip id="car_138" depart="110.40" from="29114711#0.184" to="1147624737#1" type="car"/>
    <trip id="car_139" depart="111.20" from="432309716#0" to="-407552210#1" type="car"/>
    <trip id="car_140" depart="112.00" from="200568455#0" to="236809165" type="car"/>
    <trip id="car_141" depart="112.80" from="961539471" to="1362020490" type="car"/>
    <trip id="car_142" depart="113.60" from="153776637#0" to="277203712" type="car"/>
    <trip id="car_143" depart="114.40" from="61293002" to="1362019277" type="car"/>
    <trip id="car_144" depart="115.20" from="27476764#0" to="1362020490" type="car"/>
    <trip id="car_145" depart="116.00" from="29114711#0.184" to="430532793" type="car"/>
    <trip id="car_146" depart="116.80" from="287311363#0" to="187938713#0" type="car"/>
    <trip id="car_147" depart="117.60" from="200568455#0" to="430532795" type="car"/>
    <trip id="car_148" depart="118.40" from="61293002" to="-1348067248" type="car"/>
    <trip id="car_149" depart="119.20" from="236818215" to="-1316855122#3" type="car"/>
    <trip id="car_150" depart="120.00" from="-27476683" to="61316958" type="car"/>
    <trip id="car_151" depart="120.80" from="1362019276" to="236818220#0" type="car"/>
    <trip id="car_152" depart="121.60" from="287311357#0" to="1362020490" type="car"/>
    <trip id="car_153" depart="122.40" from="161297934" to="-407552210#1" type="car"/>
    <trip id="car_154" depart="123.20" from="287311363#0" to="27348585#0" type="car"/>
    <trip id="car_155" depart="124.00" from="161297934" to="1147624737#1" type="car"/>
    <trip id="car_156" depart="124.80" from="200568455#0" to="-407552210#1" type="car"/>
    <trip id="car_157" depart="125.60" from="161297934" to="1147624737#1" type="car"/>
    <trip id="car_158" depart="126.40" from="161297934" to="-1316855122#3" type="car"/>
    <trip id="car_159" depart="127.20" from="287311363#0" to="1147624737#1" type="car"/>
    <trip id="car_160" depart="128.00" from="161297934" to="-1316855122#3" type="car"/>
    <trip id="car_161" depart="128.80" from="961539471" to="187938712" type="car"/>
    <trip id="car_162" depart="129.60" from="61293002" to="1362020490" type="car"/>
    <trip id="car_163" depart="130.40" from="1362017842" to="236809165" type="car"/>
    <trip id="car_164" depart="131.20" from="1347887395" to="-407552210#1" type="car"/>
    <trip id="car_165" depart="132.00" from="29114711#0.184" to="1347887395" type="car"/>
    <trip id="car_166" depart="132.80" from="E1" to="-407552210#1" type="car"/>
    <trip id="car_167" depart="133.60" from="61293002" to="224821293#2" type="car"/>
    <trip id="car_168" depart="134.40" from="61293002" to="1147624737#1" type="car"/>
    <trip id="car_169" depart="135.20" from="161297934" to="1147624737#1" type="car"/>
    <trip id="car_170" depart="136.00" from="161297934" to="-1316855122#3" type="car"/>
    <trip id="car_171" depart="136.80" from="29114711#0.184" to="1232799371#4" type="car"/>
    <trip id="car_172" depart="137.60" from="61293002" to="236809165" type="car"/>
    <trip id="car_173" depart="138.40" from="313992354#0" to="430532795" type="car"/>
    <trip id="car_174" depart="139.20" from="61293002" to="-1316855122#3" type="car"/>
    <trip id="car_175" depart="140.00" from="161297934" to="1347887395" type="car"/>
    <trip id="car_176" depart="140.80" from="200568455#0" to="-407552210#1" type="car"/>
    <trip id="car_177" depart="141.60" from="1271126935" to="1362020490" type="car"/>
    <trip id="car_178" depart="142.40" from="200568455#0" to="1147624737#1" type="car"/>
    <trip id="car_179" depart="143.20" from="961539471" to="E2" type="car"/>
    <trip id="car_180" depart="144.00" from="1271126935" to="255904385#0" type="car"/>
    <trip id="car_181" depart="144.80" from="29114711#0.184" to="236809165" type="car"/>
    <trip id="car_182" depart="145.60" from="407552210#0" to="430532795" type="car"/>
    <trip id="car_183" depart="146.40" from="200568455#0" to="236809165" type="car"/>
    <trip id="car_184" depart="147.20" from="200568455#0" to="61316958" type="car"/>
    <trip id="car_185" depart="148.00" from="E0" to="236809165" type="car"/>
    <trip id="car_186" depart="148.80" from="287956205" to="1362020490" type="car"/>
    <trip id="car_187" depart="149.60" from="161297934" to="1362020490" type="car"/>
    <trip id="car_188" depart="150.40" from="432309717" to="236809165" type="car"/>
    <trip id="car_189" depart="151.20" from="61293002" to="1147624737#1" type="car"/>
    <trip id="car_190" depart="152.00" from="161297931#0" to="942711943" type="car"/>
    <trip id="car_191" depart="152.80" from="29114711#0.184" to="1147624737#1" type="car"/>
    <trip id="car_192" depart="153.60" from="29092803" to="-27476683" type="car"/>
    <trip id="car_193" depart="154.40" from="E1" to="430532795" type="car"/>
    <trip id="car_194" depart="155.20" from="200568455#0" to="430532795" type="car"/>
    <trip id="car_195" depart="156.00" from="961539472" to="1147624737#1" type="car"/>
    <trip id="car_196" depart="156.80" from="29092803" to="1362020490" type="car"/>
    <trip id="car_197" depart="157.60" from="200568455#0" to="287311363#0" type="car"/>
    <trip id="car_198" depart="158.40" from="200568455#0" to="1323631883" type="car"/>
    <trip id="car_199" depart="159.20" from="29114711#0.184" to="E2" type="car"/>
    <trip id="car_200" depart="160.00" from="287311363#0" to="1362019277" type="car"/>
    <trip id="car_201" depart="160.80" from="29114711#0.184" to="1147624737#1" type="car"/>
    <trip id="car_202" depart="161.60" from="61293002" to="-1316855122#3" type="car"/>
    <trip id="car_203" depart="162.40" from="61293002" to="1362020490" type="car"/>
    <trip id="car_204" depart="163.20" from="29114711#0.184" to="430532795" type="car"/>
    <trip id="car_205" depart="164.00" from="313992354#1" to="-407552210#1" type="car"/>
    <trip id="car_206" depart="164.80" from="313992354#0" to="430532795" type="car"/>
    <trip id="car_207" depart="165.60" from="236818215" to="1348067247" type="car"/>
    <trip id="car_208" depart="166.40" from="942711932#0" to="-1316855122#3" type="car"/>
    <trip id="car_209" depart="167.20" from="1362017841" to="236809165" type="car"/>
    <trip id="car_210" depart="168.00" from="961539471" to="E2" type="car"/>
    <trip id="car_211" depart="168.80" from="407552210#0" to="430532795" type="car"/>
    <trip id="car_212" depart="169.60" from="200568455#0" to="1362020490" type="car"/>
    <trip id="car_213" depart="170.40" from="29114711#0.184" to="287956205" type="car"/>
    <trip id="car_214" depart="171.20" from="161297934" to="-1316855122#3" type="car"/>
    <trip id="car_215" depart="172.00" from="942711932#0" to="236809165" type="car"/>
    <trip id="car_216" depart="172.80" from="161297934" to="169400609#0" type="car"/>
    <trip id="car_217" depart="173.60" from="200568455#0" to="1147624737#1" type="car"/>
    <trip id="car_218" depart="174.40" from="961539471" to="236809165" type="car"/>
    <trip id="car_219" depart="175.20" from="29114711#0.184" to="1362020490" type="car"/>
    <trip id="car_220" depart="176.00" from="161297934" to="1362020490" type="car"/>
    <trip id="car_221" depart="176.80" from="961539472" to="236809165" type="car"/>
    <trip id="car_222" depart="177.60" from="200568455#0" to="287956206#2" type="car"/>
    <trip id="car_223" depart="178.40" from="29114711#0.184" to="1362020490" type="car"/>
    <trip id="car_224" depart="179.20" from="29114711#0.184" to="236809165" type="car"/>
    <trip id="car_225" depart="180.00" from="407552210#0" to="430532795" type="car"/>
    <trip id="car_226" depart="180.80" from="29114711#0.184" to="430532795" type="car"/>
    <trip id="car_227" depart="181.60" from="313992354#0" to="1347887395" type="car"/>
    <trip id="car_228" depart="182.40" from="277203721" to="200568452#0" type="car"/>
    <trip id="car_229" depart="183.20" from="200568455#0" to="25126523" type="car"/>
    <trip id="car_230" depart="184.00" from="161297934" to="-407552210#1" type="car"/>
    <trip id="car_231" depart="184.80" from="287311357#0" to="430532795" type="car"/>
    <trip id="car_232" depart="185.60" from="61293002" to="1147624737#1" type="car"/>
    <trip id="car_233" depart="186.40" from="61293002" to="187938712" type="car"/>
    <trip id="car_234" depart="187.20" from="961539471" to="-407552210#1" type="car"/>
    <trip id="car_235" depart="188.00" from="961539471" to="430532795" type="car"/>
    <trip id="car_236" depart="188.80" from="236811149#0" to="287311363#0" type="car"/>
    <trip id="car_237" depart="189.60" from="61293002" to="61316915" type="car"/>
    <trip id="car_238" depart="190.40" from="153776638#0" to="1147624737#1" type="car"/>
    <trip id="car_239" depart="191.20" from="29114711#0.184" to="430532795" type="car"/>
    <trip id="car_240" depart="192.00" from="187938710#0" to="-1316855122#3" type="car"/>
    <trip id="car_241" depart="192.80" from="61293002" to="430532795" type="car"/>
    <trip id="car_242" depart="193.60" from="200568455#0" to="1362020490" type="car"/>
    <trip id="car_243" depart="194.40" from="161297934" to="61316958" type="car"/>
    <trip id="car_244" depart="195.20" from="1451328237#0" to="430532795" type="car"/>
    <trip id="car_245" depart="196.00" from="961539471" to="1362020490" type="car"/>
    <trip id="car_246" depart="196.80" from="430532793" to="-407552210#1" type="car"/>
    <trip id="car_247" depart="197.60" from="961539471" to="-1316855122#3" type="car"/>
    <trip id="car_248" depart="198.40" from="961539471" to="430532795" type="car"/>
    <trip id="car_249" depart="199.20" from="227216231#0" to="1362020490" type="car"/>
    <trip id="car_250" depart="200.00" from="161297934" to="-407552210#1" type="car"/>
    <trip id="car_251" depart="200.80" from="29114711#0.184" to="-1316855122#3" type="car"/>
    <trip id="car_252" depart="201.60" from="61293002" to="1147624737#1" type="car"/>
    <trip id="car_253" depart="202.40" from="1362017841" to="27476764#0" type="car"/>
    <trip id="car_254" depart="203.20" from="161297934" to="1147624737#1" type="car"/>
    <trip id="car_255" depart="204.00" from="161297934" to="430532795" type="car"/>
    <trip id="car_256" depart="204.80" from="161297934" to="-407552210#1" type="car"/>
    <trip id="car_257" depart="205.60" from="161297934" to="-1316855122#3" type="car"/>
    <trip id="car_258" depart="206.40" from="961539471" to="-1316855122#3" type="car"/>
    <trip id="car_259" depart="207.20" from="61293002" to="430532795" type="car"/>
    <trip id="car_260" depart="208.00" from="961539471" to="-1316855122#3" type="car"/>
    <trip id="car_261" depart="208.80" from="961539471" to="-1316855122#3" type="car"/>
    <trip id="car_262" depart="209.60" from="1348067247" to="1147624737#1" type="car"/>
    <trip id="car_263" depart="210.40" from="200568455#0" to="E2" type="car"/>
    <trip id="car_264" depart="211.20" from="29114711#0.184" to="-407552210#1" type="car"/>
    <trip id="car_265" depart="212.00" from="407552210#0" to="430532795" type="car"/>
    <trip id="car_266" depart="212.80" from="313992354#0" to="27476764#0" type="car"/>
    <trip id="car_267" depart="213.60" from="27348585#0" to="236809165" type="car"/>
    <trip id="car_268" depart="214.40" from="236818214" to="-407552210#1" type="car"/>
    <trip id="car_269" depart="215.20" from="961539471" to="-1316855122#3" type="car"/>
    <trip id="car_270" depart="216.00" from="200568455#0" to="-407552210#1" type="car"/>
    <trip id="car_271" depart="216.80" from="224821293#2" to="236809165" type="car"/>
    <trip id="car_272" depart="217.60" from="432309716#0" to="430532795" type="car"/>
    <trip id="car_273" depart="218.40" from="29114711#0.184" to="1362020490" type="car"/>
    <trip id="car_274" depart="219.20" from="29114711#0.184" to="1147624737#1" type="car"/>
    <trip id="car_275" depart="220.00" from="313992354#1" to="1147624737#1" type="car"/>
    <trip id="car_276" depart="220.80" from="236811149#0" to="27348585#0" type="car"/>
    <trip id="car_277" depart="221.60" from="61293002.258" to="942711943" type="car"/>
    <trip id="car_278" depart="222.40" from="61293002" to="236809165" type="car"/>
    <trip id="car_279" depart="223.20" from="313992351#0" to="-1316855122#3" type="car"/>
    <trip id="car_280" depart="224.00" from="961539471" to="430532793" type="car"/>
    <trip id="car_281" depart="224.80" from="29114711#0.184" to="-1316855122#3" type="car"/>
    <trip id="car_282" depart="225.60" from="236811149#0" to="236818220#0" type="car"/>
    <trip id="car_283" depart="226.40" from="1362019276" to="-1316855122#3" type="car"/>
    <trip id="car_284" depart="227.20" from="161297934" to="236809165" type="car"/>
    <trip id="car_285" depart="228.00" from="432309717" to="-407552210#1" type="car"/>
    <trip id="car_286" depart="228.80" from="236825276" to="224821293#0" type="car"/>
    <trip id="car_287" depart="229.60" from="-27476683" to="1323631883" type="car"/>
    <trip id="car_288" depart="230.40" from="161297934" to="1362020490" type="car"/>
    <trip id="car_289" depart="231.20" from="1362017841" to="430532795" type="car"/>
    <trip id="car_290" depart="232.00" from="1271126935" to="-1316855122#3" type="car"/>
    <trip id="car_291" depart="232.80" from="961539471" to="430532795" type="car"/>
    <trip id="car_292" depart="233.60" from="200568455#0" to="287956206#2" type="car"/>
    <trip id="car_293" depart="234.40" from="29114711#0.184" to="430532795" type="car"/>
    <trip id="car_294" depart="235.20" from="961539471" to="-1348067248" type="car"/>
    <trip id="car_295" depart="236.00" from="61293002.258" to="1147624737#1" type="car"/>
    <trip id="car_296" depart="236.80" from="236825276" to="1348067246#0" type="car"/>
    <trip id="car_297" depart="237.60" from="961539471" to="1362020490" type="car"/>
    <trip id="car_298" depart="238.40" from="61293002" to="1147624737#1" type="car"/>
    <trip id="car_299" depart="239.20" from="161297934" to="1147624737#1" type="car"/>
    <trip id="car_300" depart="240.00" from="29114711#0.184" to="27348585#0" type="car"/>
    <trip id="car_301" depart="240.80" from="313992354#1" to="-407552210#1" type="car"/>
    <trip id="car_302" depart="241.60" from="432309717" to="27348585#0" type="car"/>
    <trip id="car_303" depart="242.40" from="29114711#0.184" to="236809165" type="car"/>
    <trip id="car_304" depart="243.20" from="29114711#0.184" to="430532795" type="car"/>
    <trip id="car_305" depart="244.00" from="29114711#0.184" to="-407552210#1" type="car"/>
    <trip id="car_306" depart="244.80" from="200568455#0" to="1147624737#1" type="car"/>
    <trip id="car_307" depart="245.60" from="1348067246#0" to="430532795" type="car"/>
    <trip id="car_308" depart="246.40" from="1362017842" to="430532795" type="car"/>
    <trip id="car_309" depart="247.20" from="61316915" to="236809165" type="car"/>
    <trip id="car_310" depart="248.00" from="29092803" to="287311363#0" type="car"/>
    <trip id="car_311" depart="248.80" from="61293002" to="236809165" type="car"/>
    <trip id="car_312" depart="249.60" from="200568455#0" to="187938710#0" type="car"/>
    <trip id="car_313" depart="250.40" from="161297934" to="-1316855122#3" type="car"/>
    <trip id="car_314" depart="251.20" from="277203721" to="200568452#0" type="car"/>
    <trip id="car_315" depart="252.00" from="161297934" to="1362020490" type="car"/>
    <trip id="car_316" depart="252.80" from="200568455#0" to="1362020490" type="car"/>
    <trip id="car_317" depart="253.60" from="61293002" to="236809165" type="car"/>
    <trip id="car_318" depart="254.40" from="961539471" to="430532795" type="car"/>
    <trip id="car_319" depart="255.20" from="161297934" to="1362020490" type="car"/>
    <trip id="car_320" depart="256.00" from="961539471" to="236811148" type="car"/>
    <trip id="car_321" depart="256.80" from="961539471" to="1348067246#0" type="car"/>
    <trip id="car_322" depart="257.60" from="236818215" to="287311363#0" type="car"/>
    <trip id="car_323" depart="258.40" from="61293002" to="236809165" type="car"/>
    <trip id="car_324" depart="259.20" from="61293002" to="236825277" type="car"/>
    <trip id="car_325" depart="260.00" from="313992351#0" to="1362020490" type="car"/>
    <trip id="car_326" depart="260.80" from="236811148" to="1362020490" type="car"/>
    <trip id="car_327" depart="261.60" from="161297934" to="1147624737#1" type="car"/>
    <trip id="car_328" depart="262.40" from="961539471" to="187938713#0" type="car"/>
    <trip id="car_329" depart="263.20" from="187938712" to="-407552210#1" type="car"/>
    <trip id="car_330" depart="264.00" from="1362017842" to="430532795" type="car"/>
    <trip id="car_331" depart="264.80" from="153776637#0" to="277203712" type="car"/>
    <trip id="car_332" depart="265.60" from="61293002" to="430532795" type="car"/>
    <trip id="car_333" depart="266.40" from="61293002" to="-407552210#1" type="car"/>
    <trip id="car_334" depart="267.20" from="236818215" to="-407552210#1" type="car"/>
    <trip id="car_335" depart="268.00" from="61293002" to="277203712" type="car"/>
    <trip id="car_336" depart="268.80" from="61293002" to="-407552210#1" type="car"/>
    <trip id="car_337" depart="269.60" from="287311363#0" to="1348067246#0" type="car"/>
    <trip id="car_338" depart="270.40" from="61293002" to="169400610#0" type="car"/>
    <trip id="car_339" depart="271.20" from="61293002" to="1362020490" type="car"/>
    <trip id="car_340" depart="272.00" from="961539471" to="E0" type="car"/>