<?xml version="1.0" encoding="UTF-8"?>

<!-- generated on 2026-03-16T22:35:32.299227+01:00 by Eclipse SUMO netedit 1.26.0
-->

<routes xmlns:xsi="http://www.w3.org/2001/XMLSchema-instance" xsi:noNamespaceSchemaLocation="http://sumo.dlr.de/xsd/routes_file.xsd">
    <!-- VTypes -->
    <vType id="truck" length="12.00" maxSpeed="13.89" vClass="truck" emissionClass="HBEFA3/HDV_D_EU4" guiShape="truck" color="blue" laneChangeModel="SL2015" lcStrategic="0.5" lcCooperative="1" lcSpeedGain="3.8" lcAssertive="1.5" accel="1.2" decel="4.0" sigma="0.5"/>
    <!-- Vehicles, persons and containers (sorted by depart) -->
    <vehicle id="truck_0" type="truck" depart="0.00">
        <route edges="287311357#0 27348585#0 61316915 187938712 287311363#0 1348067247 1348067246#0 287311364 27476746 291941452 291941449 1232964862 27476764#0 -1348067248"/>
    </vehicle>
    <vehicle id="truck_1" type="truck" depart="1800.00">
        <route edges="313992354#1 1362017841 313992351#0 287311357#0 27348585#0 61316915 187938712 287311363#0 1348067247 1348067246#0 287311364 27476746 291941452 942711943 1347887395 255904385#0 61316958 236818220#0"/>
    </vehicle>
</routes>
