<?xml version="1.0" encoding="UTF-8"?>
<additional xmlns:xsi="http://www.w3.org/2001/XMLSchema-instance" xsi:noNamespaceSchemaLocation="http://sumo.dlr.de/xsd/additional_file.xsd">

<vType id="car" 
        vClass="passenger" 
        length="5.0" accel="2.6" decel="4.5" sigma="0.5" 
       maxSpeed="13.89" color="white" guiShape="passenger" 
       emissionClass="HBEFA3/PC_G_EU4"
       lcStrategic="1.0" 
       lcSpeedGain="1.0" 
       lcAssertive="1.0" 
       lcCooperative="1" />

    <vType id="car_ev" 
        vClass="passenger"
        length="4.8" 
        accel="3.2" 
        decel="4.5" 
        sigma="0.4" 
        maxSpeed="13.89" 
        color="0,255,0" 
        guiShape="passenger/hatchback"
        lcSpeedGain="3.5" 
        lcStrategic="0.5"
        lcAssertive="1.5" 
        lcCooperative="1"
        emissionClass="Energy/unknown" />
    
    <vType id="motorcycle" 
        vClass="motorcycle" 
        length="2.2"
        width="0.9" 
        accel="5.0" 
        decel="7.0"
        sigma="0.7" 
        maxSpeed="13.89" 
        color="yellow"
        lcSpeedGain="3.8" 
        lcStrategic="0.5"  
        lcAssertive="1.5" 
        lcCooperative="1.2"
        guiShape="motorcycle" 
        emissionClass="HBEFA3/PC_G_EU3" />
    
    <vType id="truck"
        vClass="truck" 
        length="12.0" 
        accel="1.2" 
        decel="4.0" 
        sigma="0.5" 
        maxSpeed="13.89" 
        color="blue" 
        guiShape="truck"
        lcSpeedGain="3.8" 
        lcStrategic="0.5"  
        lcAssertive="1.5" 
        lcCooperative="1"
        emissionClass="HBEFA3/HDV_D_EU4" />
    
    <vType id="bus" 
        vClass="bus" 
        length="12.0" 
        accel="1.2" 
        decel="4.0"
        sigma="0.4" 
        maxSpeed="13.89" 
        color="orange" 
        guiShape="bus" 
        lcSpeedGain="3.8" 
        lcStrategic="0.5"  
        lcAssertive="1.5" 
        lcCooperative="1"
        emissionClass="HBEFA3/HDV_D_EU4" />
    
    <vType id="emergency" 
        vClass="emergency" 
        length="5.5" 
        accel="4.0" 
        decel="6.0" 
        sigma="0.2" 
        maxSpeed="13.89"
        speedFactor="1.5" 
        color="red" 
        guiShape="emergency" 
        emissionClass="HBEFA3/PC_G_EU4">
        <param key="has.bluelight.device" value="true"/>
    </vType>

    <vType id="tram_gdansk" 
        vClass="tram" 
        length="30.0" 
        width="2.4"
        accel="1.0" 
        decel="2.8" 
        sigma="0.1" 
        maxSpeed="13.89" 
        color="red" 
        guiShape="rail/railcar"
        emissionClass="Energy/unknown"/>

</additional>