<?xml version="1.0" encoding="UTF-8"?>

<!-- generated on 2026-03-15T18:52:26.658438+01:00 by Eclipse SUMO netedit 1.26.0
-->

<additional xmlns:xsi="http://www.w3.org/2001/XMLSchema-instance" xsi:noNamespaceSchemaLocation="http://sumo.dlr.de/xsd/additional_file.xsd">
    <!-- StoppingPlaces -->
    <busStop id="Galeria_Baltycka_01" lane="182045481#4.51_0" startPos="591.06" endPos="601.06" parkingLength="20.00"/>
    <busStop id="Galeria_Baltycka_02" lane="24811285#3_0" startPos="41.49" endPos="51.49" parkingLength="20.00"/>
    <busStop id="Galeria_Baltycka_03" lane="224821293#2_0" startPos="17.08" endPos="27.08" parkingLength="20.00"/>
    <busStop id="Galeria_Baltycka_04" lane="224821292#0_0" startPos="141.63" endPos="151.63" parkingLength="20.00"/>
    <busStop id="Galeria_Baltycka_06" lane="1451328237#0_0" startPos="17.39" endPos="27.39" parkingLength="20.00"/>
    <busStop id="Galeria_Baltycka_07" lane="287956205_0" startPos="24.76" endPos="34.76" parkingLength="20.00"/>
    <!-- Detectors -->
    <inductionLoop id="e1_0" lane="236811148_3" pos="0.00" period="300.00" file="results/e1_0.xml"/>
    <inductionLoop id="e1_1" lane="236811148_0" pos="0.00" period="300.00" file="results/e1_1.xml"/>
    <inductionLoop id="e1_10" lane="313992351#0_1" pos="0.02" period="300.00" file="results/e1_10.xml"/>
    <inductionLoop id="e1_11" lane="313992351#0_0" pos="0.03" period="300.00" file="results/e1_11.xml"/>
    <inductionLoop id="e1_12" lane="153776638#0_0" pos="0.00" period="300.00" file="results/e1_12.xml"/>
    <inductionLoop id="e1_13" lane="24811285#0_0" pos="961.38" period="300.00" file="results/e1_13.xml"/>
    <inductionLoop id="e1_14" lane="182045481#4.51_0" pos="551.04" period="300.00" file="results/e1_14.xml"/>
    <inductionLoop id="e1_15" lane="187938710#0_0" pos="48.23" period="300.00" file="results/e1_15.xml"/>
    <inductionLoop id="e1_16" lane="187938710#0_1" pos="48.14" period="300.00" file="results/e1_16.xml"/>
    <inductionLoop id="e1_17" lane="187938710#0_2" pos="48.04" period="300.00" file="results/e1_17.xml"/>
    <inductionLoop id="e1_18" lane="187938710#0_3" pos="47.92" period="300.00" file="results/e1_18.xml"/>
    <inductionLoop id="e1_19" lane="161297931#0_0" pos="56.29" period="300.00" file="results/e1_19.xml"/>
    <inductionLoop id="e1_2" lane="236811148_2" pos="0.00" period="300.00" file="results/e1_2.xml"/>
    <inductionLoop id="e1_20" lane="161297931#0_1" pos="56.73" period="300.00" file="results/e1_20.xml"/>
    <inductionLoop id="e1_21" lane="29092803_0" pos="0.00" period="300.00" file="results/e1_21.xml"/>
    <inductionLoop id="e1_22" lane="1347887395_0" pos="112.81" period="300.00" file="results/e1_22.xml"/>
    <inductionLoop id="e1_3" lane="236811148_4" pos="0.01" period="300.00" file="results/e1_3.xml"/>
    <inductionLoop id="e1_4" lane="236811148_1" pos="0.00" period="300.00" file="results/e1_4.xml"/>
    <inductionLoop id="e1_5" lane="236811148_5" pos="0.00" period="300.00" file="results/e1_5.xml"/>
    <inductionLoop id="e1_6" lane="61316958_0" pos="41.69" period="300.00" file="results/e1_6.xml"/>
    <inductionLoop id="e1_7" lane="61316958_1" pos="41.74" period="300.00" file="results/e1_7.xml"/>
    <inductionLoop id="e1_8" lane="61316958_2" pos="41.87" period="300.00" file="results/e1_8.xml"/>
    <inductionLoop id="e1_9" lane="61316958_3" pos="41.98" period="300.00" file="results/e1_9.xml"/>
</additional>
