<?xml version="1.0" encoding="UTF-8"?>

<!-- generated on 2026-03-07 14:26:53.280288 by Eclipse SUMO osmWebWizard.py v1_26_0+0000-fa7df22d7f1
<configuration>
    <net-file value="C:\Program Files (x86)\Eclipse\Sumo\tools\2026-03-07-14-26-30\osm.net.xml.gz"/>
    <output-trip-file value="C:\Program Files (x86)\Eclipse\Sumo\tools\2026-03-07-14-26-30\osm.passenger.trips.xml"/>
    <route-file value="C:\Program Files (x86)\Eclipse\Sumo\tools\2026-03-07-14-26-30\osm.passenger.rou.xml"/>
    <prefix value="veh"/>
    <trip-attributes value="departLane=&quot;best&quot;"/>
    <fringe-start-attributes value="departSpeed=&quot;max&quot;"/>
    <vehicle-class value="passenger"/>
    <lanes value="True"/>
    <fringe-factor value="5"/>
    <allow-fringe.min-length value="1000.0"/>
    <edge-permission value="passenger"/>
    <via-edge-types value="highway.motorway,highway.motorway_link,highway.trunk_link,highway.primary_link,highway.secondary_link,highway.tertiary_link"/>
    <min-distance value="300.0"/>
    <min-distance.fringe value="10.0"/>
    <remove-loops value="True"/>
    <insertion-density value="12.0"/>
</configuration>
-->

<routes xmlns:xsi="http://www.w3.org/2001/XMLSchema-instance" xsi:noNamespaceSchemaLocation="http://sumo.dlr.de/xsd/routes_file.xsd">
    <vType id="veh_passenger" vClass="passenger"/>
    <trip id="veh0" depart="0.00" from="25706158#0" to="-1154069599#0" departLane="best" type="veh_passenger"/>
    <trip id="veh1" depart="5.43" from="29114711#0" to="27475852" departLane="best" type="veh_passenger" departSpeed="max"/>
    <trip id="veh2" depart="10.85" from="639948534#0" to="-183709902" departLane="best" type="veh_passenger" departSpeed="max"/>
    <trip id="veh3" depart="16.28" from="175920328#0" to="-1154069599#0" departLane="best" type="veh_passenger" departSpeed="max"/>
    <trip id="veh4" depart="21.70" from="1069052593" to="200568454#0" departLane="best" type="veh_passenger"/>
    <trip id="veh5" depart="27.13" from="27348632" to="227681211" departLane="best" type="veh_passenger"/>
    <trip id="veh6" depart="32.56" from="348733402#0" to="-1027271884#2" departLane="best" type="veh_passenger"/>
    <trip id="veh7" depart="37.98" from="348733402#0" to="287311357#0" departLane="best" type="veh_passenger"/>
    <trip id="veh8" depart="43.41" from="-227216232#1" to="-183709903" departLane="best" type="veh_passenger"/>
    <trip id="veh9" depart="48.83" from="348733402#0" to="313992354#0" departLane="best" type="veh_passenger"/>
    <trip id="veh10" depart="54.26" from="161297937" to="236809165" departLane="best" type="veh_passenger"/>
    <trip id="veh11" depart="59.69" from="373856612" to="236818214" departLane="best" type="veh_passenger"/>
    <trip id="veh12" depart="65.11" from="449253145#0" to="236809165" departLane="best" type="veh_passenger"/>
    <trip id="veh13" depart="70.54" from="287311357#0" to="-1316855122#3" departLane="best" type="veh_passenger"/>
    <trip id="veh14" depart="75.96" from="-27475518#4" to="1220574353" departLane="best" type="veh_passenger" departSpeed="max"/>
    <trip id="veh15" depart="81.39" from="161297933" to="1063332489#0" departLane="best" type="veh_passenger"/>
    <trip id="veh16" depart="86.82" from="1220574353" to="845695689#0" departLane="best" type="veh_passenger"/>
    <trip id="veh17" depart="92.24" from="-660939283#1" to="313992351#0" departLane="best" type="veh_passenger" departSpeed="max"/>
    <trip id="veh18" depart="97.67" from="-660939283#1" to="161297933" departLane="best" type="veh_passenger" departSpeed="max"/>
    <trip id="veh19" depart="103.09" from="236811148" to="277203712" departLane="best" type="veh_passenger"/>
    <trip id="veh20" depart="108.52" from="1271126935" to="1163972696#0" departLane="best" type="veh_passenger"/>
    <trip id="veh21" depart="113.95" from="1027271884#0" to="900553942#0" departLane="best" type="veh_passenger" departSpeed="max"/>
    <trip id="veh22" depart="119.37" from="61293002" to="1233892219" departLane="best" type="veh_passenger"/>
    <trip id="veh23" depart="124.80" from="27475852" to="169400609#0" departLane="best" type="veh_passenger"/>
    <trip id="veh24" depart="130.23" from="1180195346" to="1147624737#1" departLane="best" type="veh_passenger"/>
    <trip id="veh25" depart="135.65" from="236811149#0" to="1163972696#0" departLane="best" type="veh_passenger"/>
    <trip id="veh26" depart="141.08" from="236818215" to="668550370#0" departLane="best" type="veh_passenger"/>
    <trip id="veh27" depart="146.50" from="169400749" to="1091389056#0" departLane="best" type="veh_passenger"/>
    <trip id="veh28" depart="151.93" from="961539472" to="200568455#0" departLane="best" type="veh_passenger"/>
    <trip id="veh29" depart="157.36" from="-227216232#1" to="-1316855122#3" departLane="best" type="veh_passenger"/>
    <trip id="veh30" depart="162.78" from="313994435#0" to="175334160#0" departLane="best" type="veh_passenger" departSpeed="max"/>
    <trip id="veh31" depart="168.21" from="-1091389055" to="287956206#2" departLane="best" type="veh_passenger" departSpeed="max"/>
    <trip id="veh32" depart="173.63" from="277203721" to="227216231#0" departLane="best" type="veh_passenger" departSpeed="max"/>
    <trip id="veh33" depart="179.06" from="1220574353" to="255904385#0" departLane="best" type="veh_passenger"/>
    <trip id="veh34" depart="184.49" from="-278396895#1" to="183709897" departLane="best" type="veh_passenger" departSpeed="max"/>
    <trip id="veh35" depart="189.91" from="61293002" to="1163972696#0" departLane="best" type="veh_passenger"/>
    <trip id="veh36" depart="195.34" from="200568452#0" to="-668550380#3" departLane="best" type="veh_passenger"/>
    <trip id="veh37" depart="200.76" from="236832919#0" to="-405799075#2" departLane="best" type="veh_passenger" departSpeed="max"/>
    <trip id="veh38" depart="206.19" from="313992351#0" to="227216232#0" departLane="best" type="veh_passenger"/>
    <trip id="veh39" depart="211.62" from="313994435#0" to="224821293#2" departLane="best" type="veh_passenger" departSpeed="max"/>
    <trip id="veh40" depart="217.04" from="-1063332437#4" to="1271126935" departLane="best" type="veh_passenger"/>
    <trip id="veh41" depart="222.47" from="-1091389055" to="771467599#0" departLane="best" type="veh_passenger" departSpeed="max"/>
    <trip id="veh42" depart="227.89" from="61295588#0" to="440227071#0" departLane="best" type="veh_passenger"/>
    <trip id="veh43" depart="233.32" from="1233897558#0" to="-175920328#2" departLane="best" type="veh_passenger"/>
    <trip id="veh44" depart="238.75" from="61295588#0" to="900553942#0" departLane="best" type="veh_passenger"/>
    <trip id="veh45" depart="244.17" from="313992354#0" to="-256314608#1" departLane="best" type="veh_passenger"/>
    <trip id="veh46" depart="249.60" from="183709910" to="236809165" departLane="best" type="veh_passenger"/>
    <trip id="veh47" depart="255.02" from="1180195346" to="621263676#0" departLane="best" type="veh_passenger"/>
    <trip id="veh48" depart="260.45" from="175920328#0" to="1063332489#0" departLane="best" type="veh_passenger" departSpeed="max"/>
    <trip id="veh49" depart="265.88" from="227216231#0" to="313992354#0" departLane="best" type="veh_passenger"/>
    <trip id="veh50" depart="271.30" from="1027271884#0" to="1233834164" departLane="best" type="veh_passenger" departSpeed="max"/>
    <trip id="veh51" depart="276.73" from="961539472" to="255909078#0" departLane="best" type="veh_passenger"/>
    <trip id="veh52" depart="282.15" from="-355295621#1" to="1091389077#0" departLane="best" type="veh_passenger"/>
    <trip id="veh53" depart="287.58" from="1362017841" to="236809165" departLane="best" type="veh_passenger"/>
    <trip id="veh54" depart="293.01" from="449253144" to="-183709899#0" departLane="best" type="veh_passenger"/>
    <trip id="veh55" depart="298.43" from="1147624737#0" to="27475518#0" departLane="best" type="veh_passenger"/>
    <trip id="veh56" depart="303.86" from="1027271884#0" to="-27475852" departLane="best" type="veh_passenger" departSpeed="max"/>
    <trip id="veh57" depart="309.28" from="766268171" to="236809165" departLane="best" type="veh_passenger" departSpeed="max"/>
    <trip id="veh58" depart="314.71" from="348733402#0" to="-895850337" departLane="best" type="veh_passenger"/>
    <trip id="veh59" depart="320.14" from="-27475518#4" to="183709895#0" departLane="best" type="veh_passenger" departSpeed="max"/>
    <trip id="veh60" depart="325.56" from="175920328#0" to="187938710#0" departLane="best" type="veh_passenger" departSpeed="max"/>
    <trip id="veh61" depart="330.99" from="29092803" to="27475518#0" departLane="best" type="veh_passenger"/>
    <trip id="veh62" depart="336.41" from="961539471" to="-183709907" departLane="best" type="veh_passenger"/>
    <trip id="veh63" depart="341.84" from="169400750#0" to="1347887395" departLane="best" type="veh_passenger"/>
    <trip id="veh64" depart="347.27" from="449253145#0" to="1147626421#0" departLane="best" type="veh_passenger"/>
    <trip id="veh65" depart="352.69" from="175920328#0" to="1220574353" departLane="best" type="veh_passenger" departSpeed="max"/>
    <trip id="veh66" depart="358.12" from="1154069599#0" to="766897715#0" departLane="best" type="veh_passenger" departSpeed="max"/>
    <trip id="veh67" depart="363.55" from="236811148" to="-1337359712#2" departLane="best" type="veh_passenger"/>
    <trip id="veh68" depart="368.97" from="961539472" to="449253145#0" departLane="best" type="veh_passenger"/>
    <trip id="veh69" depart="374.40" from="942711943" to="766897715#0" departLane="best" type="veh_passenger"/>
    <trip id="veh70" depart="379.82" from="187938710#0" to="1069052593" departLane="best" type="veh_passenger"/>
    <trip id="veh71" depart="385.25" from="169400750#0" to="-175920328#2" departLane="best" type="veh_passenger"/>
    <trip id="veh72" depart="390.68" from="1180195346" to="397056711#1" departLane="best" type="veh_passenger"/>
    <trip id="veh73" depart="396.10" from="-440227071#2" to="1232799371#2" departLane="best" type="veh_passenger"/>
    <trip id="veh74" depart="401.53" from="942711943" to="236809165" departLane="best" type="veh_passenger"/>
    <trip id="veh75" depart="406.95" from="-175334160#2" to="236809165" departLane="best" type="veh_passenger"/>
    <trip id="veh76" depart="412.38" from="200568455#0" to="61295643#0" departLane="best" type="veh_passenger"/>
    <trip id="veh77" depart="417.81" from="-449253146" to="942711932#0" departLane="best" type="veh_passenger"/>
    <trip id="veh78" depart="423.23" from="236832919#0" to="27475518#0" departLane="best" type="veh_passenger" departSpeed="max"/>
    <trip id="veh79" depart="428.66" from="1147624737#0" to="-255909082#3" departLane="best" type="veh_passenger"/>
    <trip id="veh80" depart="434.08" from="236832919#0" to="236818214" departLane="best" type="veh_passenger" departSpeed="max"/>
    <trip id="veh81" depart="439.51" from="175920328#0" to="236809165" departLane="best" type="veh_passenger" departSpeed="max"/>
    <trip id="veh82" depart="444.94" from="224821292#0" to="820514338#0" departLane="best" type="veh_passenger"/>
    <trip id="veh83" depart="450.36" from="1027271884#0" to="287956206#0" departLane="best" type="veh_passenger" departSpeed="max"/>
    <trip id="veh84" depart="455.79" from="1147624737#0" to="169400609#0" departLane="best" type="veh_passenger"/>
    <trip id="veh85" depart="461.21" from="1271126935" to="348733402#0" departLane="best" type="veh_passenger"/>
    <trip id="veh86" depart="466.64" from="1180195346" to="81638130#0" departLane="best" type="veh_passenger"/>
    <trip id="veh87" depart="472.07" from="61316915" to="660939283#0" departLane="best" type="veh_passenger"/>
    <trip id="veh88" depart="477.49" from="161297933" to="-434868005" departLane="best" type="veh_passenger"/>
    <trip id="veh89" depart="482.92" from="397056712#0" to="287311357#3" departLane="best" type="veh_passenger"/>
    <trip id="veh90" depart="488.34" from="27475852" to="-1027271884#2" departLane="best" type="veh_passenger"/>
    <trip id="veh91" depart="493.77" from="355295621#2" to="1232799371#3" departLane="best" type="veh_passenger"/>
    <trip id="veh92" depart="499.20" from="-397056711#1" to="-227216232#1" departLane="best" type="veh_passenger" departSpeed="max"/>
    <trip id="veh93" depart="504.62" from="-27475852" to="236809165" departLane="best" type="veh_passenger"/>
    <trip id="veh94" depart="510.05" from="187938712" to="668550371#0" departLane="best" type="veh_passenger"/>
    <trip id="veh95" depart="515.47" from="175920328#0" to="1180195346" departLane="best" type="veh_passenger" departSpeed="max"/>
    <trip id="veh96" depart="520.90" from="-1063332489#1" to="358406844" departLane="best" type="veh_passenger" departSpeed="max"/>
    <trip id="veh97" depart="526.33" from="25706153#0" to="1163972696#0" departLane="best" type="veh_passenger"/>
    <trip id="veh98" depart="531.75" from="29114711#0" to="236809165" departLane="best" type="veh_passenger" departSpeed="max"/>
    <trip id="veh99" depart="537.18" from="176329208#0" to="-1063332437#4" departLane="best" type="veh_passenger"/>
    <trip id="veh100" depart="542.60" from="661430011#0" to="227681211" departLane="best" type="veh_passenger"/>
    <trip id="veh101" depart="548.03" from="397056712#0" to="236809165" departLane="best" type="veh_passenger"/>
    <trip id="veh102" depart="553.46" from="-405799075#2" to="-255909082#3" departLane="best" type="veh_passenger"/>
    <trip id="veh103" depart="558.88" from="1233897558#0" to="668550370#0" departLane="best" type="veh_passenger"/>
    <trip id="veh104" depart="564.31" from="639948534#0" to="1063332489#0" departLane="best" type="veh_passenger" departSpeed="max"/>
    <trip id="veh105" depart="569.73" from="1154069599#0" to="-183709908#0" departLane="best" type="veh_passenger" departSpeed="max"/>
    <trip id="veh106" depart="575.16" from="313994435#0" to="660939283#0" departLane="best" type="veh_passenger" departSpeed="max"/>
    <trip id="veh107" depart="580.59" from="169400751#0" to="236818215" departLane="best" type="veh_passenger"/>
    <trip id="veh108" depart="586.01" from="-434868006#5" to="771467599#0" departLane="best" type="veh_passenger"/>
    <trip id="veh109" depart="591.44" from="449253146" to="945880291#0" departLane="best" type="veh_passenger"/>
    <trip id="veh110" depart="596.87" from="348733403" to="660939283#0" departLane="best" type="veh_passenger"/>
    <trip id="veh111" depart="602.29" from="348733401#0" to="61316915" departLane="best" type="veh_passenger"/>
    <trip id="veh112" depart="607.72" from="348733403" to="1163972696#0" departLane="best" type="veh_passenger"/>
    <trip id="veh113" depart="613.14" from="313994435#0" to="-183709908#1" departLane="best" type="veh_passenger" departSpeed="max"/>
    <trip id="veh114" depart="618.57" from="60264047" to="61295643#0" departLane="best" type="veh_passenger"/>
    <trip id="veh115" depart="624.00" from="313994435#0" to="1091389078#0" departLane="best" type="veh_passenger" departSpeed="max"/>
    <trip id="veh116" depart="629.42" from="942711942" to="1220574353" departLane="best" type="veh_passenger"/>
    <trip id="veh117" depart="634.85" from="766268171" to="-227216232#1" departLane="best" type="veh_passenger" departSpeed="max"/>
    <trip id="veh118" depart="640.27" from="942711932#0" to="1163972696#0" departLane="best" type="veh_passenger"/>
    <trip id="veh119" depart="645.70" from="-27476683" to="183709897" departLane="best" type="veh_passenger"/>
    <trip id="veh120" depart="651.13" from="29092803" to="1233892219" departLane="best" type="veh_passenger"/>
    <trip id="veh121" depart="656.55" from="236832919#0" to="200568455#0" departLane="best" type="veh_passenger" departSpeed="max"/>
    <trip id="veh122" depart="661.98" from="169400609#0" to="236809165" departLane="best" type="veh_passenger"/>
    <trip id="veh123" depart="667.40" from="1154069599#0" to="287311363#0" departLane="best" type="veh_passenger" departSpeed="max"/>
    <trip id="veh124" depart="672.83" from="-1063332437#4" to="766897715#0" departLane="best" type="veh_passenger"/>
    <trip id="veh125" depart="678.26" from="227216231#0" to="287956206#2" departLane="best" type="veh_passenger"/>
    <trip id="veh126" depart="683.68" from="29114711#0" to="27475518#0" departLane="best" type="veh_passenger" departSpeed="max"/>
    <trip id="veh127" depart="689.11" from="287956205" to="1232799371#3" departLane="best" type="veh_passenger"/>
    <trip id="veh128" depart="694.53" from="1271126935" to="169400749" departLane="best" type="veh_passenger"/>
    <trip id="veh129" depart="699.96" from="169400750#0" to="1232799371#2" departLane="best" type="veh_passenger"/>
    <trip id="veh130" depart="705.39" from="-362762664#2" to="175334155" departLane="best" type="veh_passenger"/>
    <trip id="veh131" depart="710.81" from="766268171" to="27475852" departLane="best" type="veh_passenger" departSpeed="max"/>
    <trip id="veh132" depart="716.24" from="661154459#0" to="236818214" departLane="best" type="veh_passenger"/>
    <trip id="veh133" depart="721.66" from="1233834164" to="236809165" departLane="best" type="veh_passenger"/>
    <trip id="veh134" depart="727.09" from="-1063332437#4" to="1232799370" departLane="best" type="veh_passenger"/>
    <trip id="veh135" depart="732.52" from="176329208#0" to="236809165" departLane="best" type="veh_passenger"/>
    <trip id="veh136" depart="737.94" from="27475852" to="187938710#0" departLane="best" type="veh_passenger"/>
    <trip id="veh137" depart="743.37" from="355295621#5" to="348733401#0" departLane="best" type="veh_passenger"/>
    <trip id="veh138" depart="748.79" from="277203721" to="1091389077#0" departLane="best" type="veh_passenger" departSpeed="max"/>
    <trip id="veh139" depart="754.22" from="1027271884#0" to="-1154069599#0" departLane="best" type="veh_passenger" departSpeed="max"/>
    <trip id="veh140" depart="759.65" from="1147624737#1" to="196664103" departLane="best" type="veh_passenger"/>
    <trip id="veh141" depart="765.07" from="432309717" to="-183709899#1" departLane="best" type="veh_passenger"/>
    <trip id="veh142" depart="770.50" from="175334161#0" to="236818220#0" departLane="best" type="veh_passenger"/>
    <trip id="veh143" depart="775.92" from="196664103" to="1147624737#1" departLane="best" type="veh_passenger"/>
    <trip id="veh144" depart="781.35" from="27476146#0" to="-1027271884#2" departLane="best" type="veh_passenger"/>
    <trip id="veh145" depart="786.78" from="29177181#0" to="358406844" departLane="best" type="veh_passenger" departSpeed="max"/>
    <trip id="veh146" depart="792.20" from="-27475852" to="176329199" departLane="best" type="veh_passenger"/>
    <trip id="veh147" depart="797.63" from="224779155#0" to="-1337359712#2" departLane="best" type="veh_passenger"/>
    <trip id="veh148" depart="803.05" from="1154069599#0" to="61293002" departLane="best" type="veh_passenger" departSpeed="max"/>
    <trip id="veh149" depart="808.48" from="277203721" to="961539471" departLane="best" type="veh_passenger" departSpeed="max"/>
    <trip id="veh150" depart="813.91" from="236832919#0" to="900553942#0" departLane="best" type="veh_passenger" departSpeed="max"/>
    <trip id="veh151" depart="819.33" from="287956205" to="200568454#0" departLane="best" type="veh_passenger"/>
    <trip id="veh152" depart="824.76" from="397056711#0" to="236809165" departLane="best" type="veh_passenger"/>
    <trip id="veh153" depart="830.19" from="639948534#0" to="328853113" departLane="best" type="veh_passenger" departSpeed="max"/>
    <trip id="veh154" depart="835.61" from="1147626421#0" to="241159847#0" departLane="best" type="veh_passenger"/>
    <trip id="veh155" depart="841.04" from="313992354#0" to="224821292#0" departLane="best" type="veh_passenger"/>
    <trip id="veh156" depart="846.46" from="255904385#0" to="1178303352#0" departLane="best" type="veh_passenger"/>
    <trip id="veh157" depart="851.89" from="227216231#0" to="-355295621#4" departLane="best" type="veh_passenger"/>
    <trip id="veh158" depart="857.32" from="287311357#3" to="-175920328#2" departLane="best" type="veh_passenger"/>
    <trip id="veh159" depart="862.74" from="175920328#0" to="1063332489#0" departLane="best" type="veh_passenger" departSpeed="max"/>
    <trip id="veh160" depart="868.17" from="175920328#0" to="668550370#0" departLane="best" type="veh_passenger" departSpeed="max"/>
    <trip id="veh161" depart="873.59" from="440227071#0" to="355295621#5" departLane="best" type="veh_passenger"/>
    <trip id="veh162" depart="879.02" from="161297937" to="-1027271884#2" departLane="best" type="veh_passenger"/>
    <trip id="veh163" depart="884.45" from="1362019276" to="348733402#0" departLane="best" type="veh_passenger"/>
    <trip id="veh164" depart="889.87" from="434868006#0" to="900553942#0" departLane="best" type="veh_passenger"/>
    <trip id="veh165" depart="895.30" from="175920328#0" to="348733401#0" departLane="best" type="veh_passenger" departSpeed="max"/>
    <trip id="veh166" depart="900.72" from="1362017841" to="27476146#0" departLane="best" type="veh_passenger"/>
    <trip id="veh167" depart="906.15" from="169400751#0" to="-61295643#3" departLane="best" type="veh_passenger"/>
    <trip id="veh168" depart="911.58" from="241159847#0" to="-1154069599#0" departLane="best" type="veh_passenger"/>
    <trip id="veh169" depart="917.00" from="169400748" to="236809165" departLane="best" type="veh_passenger"/>
    <trip id="veh170" depart="922.43" from="-397056711#1" to="187938710#0" departLane="best" type="veh_passenger" departSpeed="max"/>
    <trip id="veh171" depart="927.85" from="-1337359712#2" to="161297933" departLane="best" type="veh_passenger"/>
    <trip id="veh172" depart="933.28" from="1027271884#0" to="1271126935" departLane="best" type="veh_passenger" departSpeed="max"/>
    <trip id="veh173" depart="938.71" from="313992351#0" to="161297933" departLane="best" type="veh_passenger"/>
    <trip id="veh174" depart="944.13" from="29177181#0" to="449253144" departLane="best" type="veh_passenger" departSpeed="max"/>
    <trip id="veh175" depart="949.56" from="1154069599#0" to="-183709900#0" departLane="best" type="veh_passenger" departSpeed="max"/>
    <trip id="veh176" depart="954.98" from="-1091389055" to="227216232#0" departLane="best" type="veh_passenger" departSpeed="max"/>
    <trip id="veh177" depart="960.41" from="961539472" to="1362017842" departLane="best" type="veh_passenger"/>
    <trip id="veh178" depart="965.84" from="771467599#0" to="1027195295#0" departLane="best" type="veh_passenger"/>
    <trip id="veh179" depart="971.26" from="-1091389055" to="-405799075#2" departLane="best" type="veh_passenger" departSpeed="max"/>
    <trip id="veh180" depart="976.69" from="-358405944#4" to="27475518#0" departLane="best" type="veh_passenger"/>
    <trip id="veh181" depart="982.11" from="236811149#0" to="1091389056#0" departLane="best" type="veh_passenger"/>
    <trip id="veh182" depart="987.54" from="277203724" to="358405944#0" departLane="best" type="veh_passenger"/>
    <trip id="veh183" depart="992.97" from="29114711#0" to="-225078984#2" departLane="best" type="veh_passenger" departSpeed="max"/>
    <trip id="veh184" depart="998.39" from="355295621#5" to="942711932#0" departLane="best" type="veh_passenger"/>
    <trip id="veh185" depart="1003.82" from="-27476683" to="-1154069599#0" departLane="best" type="veh_passenger"/>
    <trip id="veh186" depart="1009.24" from="1271126935" to="27475852" departLane="best" type="veh_passenger"/>
    <trip id="veh187" depart="1014.67" from="287311363#0" to="-183709900#0" departLane="best" type="veh_passenger"/>
    <trip id="veh188" depart="1020.10" from="277203721" to="236818220#0" departLane="best" type="veh_passenger" departSpeed="max"/>
    <trip id="veh189" depart="1025.52" from="-27475518#4" to="362762664#0" departLane="best" type="veh_passenger" departSpeed="max"/>
    <trip id="veh190" depart="1030.95" from="313994435#0" to="1362017841" departLane="best" type="veh_passenger" departSpeed="max"/>
    <trip id="veh191" depart="1036.37" from="176329208#0" to="1362020490" departLane="best" type="veh_passenger"/>
    <trip id="veh192" depart="1041.80" from="200568455#0" to="1348067246#0" departLane="best" type="veh_passenger"/>
    <trip id="veh193" depart="1047.23" from="432309717" to="430532795" departLane="best" type="veh_passenger"/>
    <trip id="veh194" depart="1052.65" from="287311357#3" to="183709897" departLane="best" type="veh_passenger"/>
    <trip id="veh195" depart="1058.08" from="29114711#0" to="942711933" departLane="best" type="veh_passenger" departSpeed="max"/>
    <trip id="veh196" depart="1063.51" from="227216231#0" to="200568454#0" departLane="best" type="veh_passenger"/>
    <trip id="veh197" depart="1068.93" from="397056711#0" to="-183709902" departLane="best" type="veh_passenger"/>
    <trip id="veh198" depart="1074.36" from="61316915" to="1147624737#1" departLane="best" type="veh_passenger"/>
    <trip id="veh199" depart="1079.78" from="161297937" to="-1154069599#0" departLane="best" type="veh_passenger"/>
    <trip id="veh200" depart="1085.21" from="432309717" to="-766268171" departLane="best" type="veh_passenger"/>
    <trip id="veh201" depart="1090.64" from="1027271884#0" to="430532791" departLane="best" type="veh_passenger" departSpeed="max"/>
    <trip id="veh202" depart="1096.06" from="1362017842" to="660939283#0" departLane="best" type="veh_passenger"/>
    <trip id="veh203" depart="1101.49" from="277203724" to="1180195346" departLane="best" type="veh_passenger"/>
    <trip id="veh204" depart="1106.91" from="-1063332489#1" to="900553942#0" departLane="best" type="veh_passenger" departSpeed="max"/>
    <trip id="veh205" depart="1112.34" from="187938712" to="348733403" departLane="best" type="veh_passenger"/>
    <trip id="veh206" depart="1117.77" from="277203721" to="255909078#0" departLane="best" type="veh_passenger" departSpeed="max"/>
    <trip id="veh207" depart="1123.19" from="196662201" to="405799074" departLane="best" type="veh_passenger"/>
    <trip id="veh208" depart="1128.62" from="-227216232#1" to="1091389056#0" departLane="best" type="veh_passenger"/>
    <trip id="veh209" depart="1134.04" from="236818215" to="196664102" departLane="best" type="veh_passenger"/>
    <trip id="veh210" depart="1139.47" from="29114711#0" to="1323631883" departLane="best" type="veh_passenger" departSpeed="max"/>
    <trip id="veh211" depart="1144.90" from="287311357#0" to="1164856803#0" departLane="best" type="veh_passenger"/>
    <trip id="veh212" depart="1150.32" from="1154069599#0" to="-255909082#3" departLane="best" type="veh_passenger" departSpeed="max"/>
    <trip id="veh213" depart="1155.75" from="1011222402" to="-255909082#3" departLane="best" type="veh_passenger"/>
    <trip id="veh214" depart="1161.17" from="-845695689#1" to="1091389056#0" departLane="best" type="veh_passenger" departSpeed="max"/>
    <trip id="veh215" depart="1166.60" from="187938710#0" to="29114162" departLane="best" type="veh_passenger"/>
    <trip id="veh216" depart="1172.03" from="1027195294#0" to="1091389078#0" departLane="best" type="veh_passenger"/>
    <trip id="veh217" depart="1177.45" from="-845695689#1" to="-1091389070#1" departLane="best" type="veh_passenger" departSpeed="max"/>
    <trip id="veh218" depart="1182.88" from="60264047" to="236809165" departLane="best" type="veh_passenger"/>
    <trip id="veh219" depart="1188.30" from="358405944#3" to="169400610#0" departLane="best" type="veh_passenger"/>
    <trip id="veh220" depart="1193.73" from="-1337360592#1" to="-397056711#0" departLane="best" type="veh_passenger"/>
    <trip id="veh221" depart="1199.16" from="236811149#0" to="1232799371#4" departLane="best" type="veh_passenger"/>
    <trip id="veh222" depart="1204.58" from="961539472" to="-227216232#1" departLane="best" type="veh_passenger"/>
    <trip id="veh223" depart="1210.01" from="313994435#0" to="1091389078#0" departLane="best" type="veh_passenger" departSpeed="max"/>
    <trip id="veh224" depart="1215.43" from="224821292#0" to="183709903" departLane="best" type="veh_passenger"/>
    <trip id="veh225" depart="1220.86" from="961539471" to="1232799371#4" departLane="best" type="veh_passenger"/>
    <trip id="veh226" depart="1226.29" from="29114711#0" to="900553942#0" departLane="best" type="veh_passenger" departSpeed="max"/>
    <trip id="veh227" depart="1231.71" from="1027271884#0" to="1063332489#0" departLane="best" type="veh_passenger" departSpeed="max"/>
    <trip id="veh228" depart="1237.14" from="-1063332489#1" to="183709903" departLane="best" type="veh_passenger" departSpeed="max"/>
    <trip id="veh229" depart="1242.56" from="236832919#0" to="1232799371#0" departLane="best" type="veh_passenger" departSpeed="max"/>
    <trip id="veh230" depart="1247.99" from="1104505921#0" to="287311357#4" departLane="best" type="veh_passenger"/>
    <trip id="veh231" depart="1253.42" from="287311357#0" to="183709908#1" departLane="best" type="veh_passenger"/>
    <trip id="veh232" depart="1258.84" from="277203721" to="766897715#0" departLane="best" type="veh_passenger" departSpeed="max"/>
    <trip id="veh233" depart="1264.27" from="313994435#0" to="236818215" departLane="best" type="veh_passenger" departSpeed="max"/>
    <trip id="veh234" depart="1269.69" from="176329199" to="227216233" departLane="best" type="veh_passenger"/>
    <trip id="veh235" depart="1275.12" from="27348632" to="668550375#0" departLane="best" type="veh_passenger"/>
    <trip id="veh236" depart="1280.55" from="362762664#0" to="-183709899#1" departLane="best" type="veh_passenger"/>
    <trip id="veh237" depart="1285.97" from="-660939283#1" to="1232799371#4" departLane="best" type="veh_passenger" departSpeed="max"/>
    <trip id="veh238" depart="1291.40" from="29114711#0" to="236809165" departLane="best" type="veh_passenger" departSpeed="max"/>