<?xml version="1.0" encoding="UTF-8"?>

<!-- generated on 2026-03-14T10:43:11.017593+01:00 by Eclipse SUMO netedit 1.26.0
-->

<additional xmlns:xsi="http://www.w3.org/2001/XMLSchema-instance" xsi:noNamespaceSchemaLocation="http://sumo.dlr.de/xsd/additional_file.xsd">
    <!-- Detectors -->
    <inductionLoop id="e1_0" lane="236811148_3" pos="0.00" period="300.00" file="e1_0.xml"/>
    <inductionLoop id="e1_1" lane="236811148_0" pos="0.00" period="300.00" file="e1_1.xml"/>
    <inductionLoop id="e1_10" lane="313992351#0_1" pos="0.02" period="300.00" file="e1_10.xml"/>
    <inductionLoop id="e1_11" lane="313992351#0_0" pos="0.03" period="300.00" file="e1_11.xml"/>
    <inductionLoop id="e1_12" lane="153776638#0_0" pos="0.00" period="300.00" file="e1_12.xml"/>
    <inductionLoop id="e1_13" lane="24811285#0_0" pos="961.38" period="300.00" file="e1_13.xml"/>
    <inductionLoop id="e1_14" lane="182045481#4.51_0" pos="551.04" period="300.00" file="e1_14.xml"/>
    <inductionLoop id="e1_15" lane="187938710#0_0" pos="28.78" period="300.00" file="e1_15.xml"/>
    <inductionLoop id="e1_16" lane="187938710#0_1" pos="28.71" period="300.00" file="e1_16.xml"/>
    <inductionLoop id="e1_17" lane="187938710#0_2" pos="28.63" period="300.00" file="e1_17.xml"/>
    <inductionLoop id="e1_18" lane="187938710#0_3" pos="28.56" period="300.00" file="e1_18.xml"/>
    <inductionLoop id="e1_19" lane="161297931#0_0" pos="35.10" period="300.00" file="e1_19.xml"/>
    <inductionLoop id="e1_2" lane="236811148_2" pos="0.00" period="300.00" file="e1_2.xml"/>
    <inductionLoop id="e1_20" lane="161297931#0_1" pos="35.76" period="300.00" file="e1_20.xml"/>
    <inductionLoop id="e1_21" lane="29092803_0" pos="0.00" period="300.00" file="e1_21.xml"/>
    <inductionLoop id="e1_22" lane="1347887395_0" pos="112.81" period="300.00" file="e1_22.xml"/>
    <inductionLoop id="e1_3" lane="236811148_4" pos="0.01" period="300.00" file="e1_3.xml"/>
    <inductionLoop id="e1_4" lane="236811148_1" pos="0.00" period="300.00" file="e1_4.xml"/>
    <inductionLoop id="e1_5" lane="236811148_5" pos="0.00" period="300.00" file="e1_5.xml"/>
    <inductionLoop id="e1_6" lane="61316958_0" pos="0.01" period="300.00" file="e1_6.xml"/>
    <inductionLoop id="e1_7" lane="61316958_1" pos="0.00" period="300.00" file="e1_7.xml"/>
    <inductionLoop id="e1_8" lane="61316958_2" pos="0.00" period="300.00" file="e1_8.xml"/>
    <inductionLoop id="e1_9" lane="61316958_3" pos="0.00" period="300.00" file="e1_9.xml"/>
</additional>
