<?xml version="1.0" encoding="UTF-8"?>

<!-- generated on 2026-03-07 14:26:52.206533 by Eclipse SUMO osmWebWizard.py v1_26_0+0000-fa7df22d7f1
<configuration>
    <net-file value="C:\Program Files (x86)\Eclipse\Sumo\tools\2026-03-07-14-26-30\osm.net.xml.gz"/>
    <ptlines-file value="C:\Program Files (x86)\Eclipse\Sumo\tools\2026-03-07-14-26-30\osm_ptlines.xml"/>
    <ptstops-file value="C:\Program Files (x86)\Eclipse\Sumo\tools\2026-03-07-14-26-30\osm_stops.add.xml"/>
    <output-file value="C:\Program Files (x86)\Eclipse\Sumo\tools\2026-03-07-14-26-30\osm_pt.rou.xml"/>
    <stopinfos-file value="C:\Program Files (x86)\Eclipse\Sumo\tools\2026-03-07-14-26-30\stopinfos.xml"/>
    <routes-file value="C:\Program Files (x86)\Eclipse\Sumo\tools\2026-03-07-14-26-30\vehroutes.xml"/>
    <trips-file value="C:\Program Files (x86)\Eclipse\Sumo\tools\2026-03-07-14-26-30\trips.trips.xml"/>
    <min-stops value="0"/>
    <extend-to-fringe value="True"/>
    <random-begin value="True"/>
    <seed value="42"/>
    <ignore-errors value="True"/>
    <vtype-prefix value="pt_"/>
    <verbose value="True"/>
</configuration>
-->

<routes xmlns:xsi="http://www.w3.org/2001/XMLSchema-instance" xsi:noNamespaceSchemaLocation="http://sumo.dlr.de/xsd/routes_file.xsd">
    <vType id="pt_bus" vClass="bus"/>
    <vType id="pt_tram" vClass="tram"/>
    <vType id="pt_train" vClass="rail"/>
    <vType id="pt_subway" vClass="subway"/>
    <vType id="pt_light_rail" vClass="rail_urban"/>
    <vType id="pt_monorail" vClass="rail_urban"/>
    <vType id="pt_trolleybus" vClass="bus"/>
    <vType id="pt_minibus" vClass="bus"/>
    <vType id="pt_share_taxi" vClass="taxi"/>
    <vType id="pt_aerialway" vClass="cable_car" length="2.5" width="2" personCapacity="4"/>
    <vType id="pt_ferry" vClass="ship"/>
    <route id="pt_bus_110:0" edges="29114711#0 1362017843 1362017842 313992354#0 313992354#1 1362017841 313992351#0 60264047 287311357#0 287311357#3 287311357#4 27348585#0 27476801 287311363#0 1348067247 1348067246#0 287311364 236825277 -1316855122#3" >
        <stop busStop="3702069139" duration="20" until="77.0"/> <!-- Zabytkowa 01 -->
        <stop busStop="3699707968" duration="20" until="233.0"/> <!-- Galeria Bałtycka 05 -->
        <stop busStop="-9875512697" duration="20" until="337.0"/> <!-- Wrzeszcz PKP -->
    </route>
    <route id="pt_bus_110:1" edges="61293509 -61293490 -1178303967#1 61293073#0 -368641560#1 27476146#0 1343590243 227216231#0 236818215 236818214 161297931#0 432309716#0 287956206#0 287956206#2 1451328237#0 430532791 1323631883 430532793 430532795" >
        <stop busStop="3701948568" duration="20" until="43.0"/> <!-- Wrzeszcz PKP -->
        <stop busStop="3699707967" duration="20" until="246.0"/> <!-- Galeria Bałtycka 06 -->
    </route>
    <route id="pt_bus_110:2" edges="29114711#0 1362017843 1362017842 313992354#0 313992354#1 1362017841 313992351#0 60264047 287311357#0 287311357#3 287311357#4 27348585#0 27476801 287311363#0 1348067247 1348067246#0 287311364 236825277 -1316855122#3" >
        <stop busStop="3702069139" duration="20" until="48.0"/> <!-- Zabytkowa 01 -->
        <stop busStop="3699707968" duration="20" until="315.0"/> <!-- Galeria Bałtycka 05 -->
        <stop busStop="-9875512697" duration="20" until="421.0"/> <!-- Wrzeszcz PKP -->
    </route>
    <route id="pt_bus_110:3" edges="61293509 -61293490 -1178303967#1 61293073#0 -368641560#1 27476146#0 1343590243 227216231#0 236818215 236818214 161297931#0 432309716#0 287956206#0 287956206#2 1451328237#0 430532791 1323631883 430532793 430532795" >
        <stop busStop="3701948568" duration="20" until="74.0"/> <!-- Wrzeszcz PKP -->
        <stop busStop="3699707967" duration="20" until="253.0"/> <!-- Galeria Bałtycka 06 -->
    </route>
    <route id="pt_bus_115:0" edges="29177181#0 176329208#0 1027195294#0 1220574353" >
        <stop busStop="3711898568" duration="20" until="105.0"/> <!-- Wrzeszcz PKP -->
    </route>
    <route id="pt_bus_115:1" edges="168136132 -61293493 -61293490 -1178303967#1 -61292939#1 -225078984#2 1027195295#0 895854935 27475506#0 1163972696#0" >
        <stop busStop="3701948570" duration="20" until="58.0"/> <!-- Wrzeszcz PKP -->
    </route>
    <route id="pt_bus_115:2" edges="29177181#0 176329208#0 1027195294#0 1220574353" >
        <stop busStop="3711898568" duration="20" until="116.0"/> <!-- Wrzeszcz PKP -->
    </route>
    <route id="pt_bus_115:3" edges="168136132 -61293493 -61293490 -1178303967#1 -61292939#1 -225078984#2 1027195295#0 895854935 27475506#0 1163972696#0" >
        <stop busStop="3701948570" duration="20" until="46.0"/> <!-- Wrzeszcz PKP -->
    </route>
    <route id="pt_bus_116:0" edges="61293509 -61293490 -1178303967#1 61293073#0 -368641560#1 27476146#0 1343590243 227216231#0 236818215 236818214 161297931#0 432309716#0 287956206#0 287956206#2 1451328237#0 430532791 1323631883 430532793 430532795" >
        <stop busStop="3701948568" duration="20" until="43.0"/> <!-- Wrzeszcz PKP -->
        <stop busStop="3699707967" duration="20" until="223.0"/> <!-- Galeria Bałtycka 06 -->
    </route>
    <route id="pt_bus_116:1" edges="1451328237#0 430532791 1323631883 430532793 430532795" >
        <stop busStop="3699707967" duration="20" until="47.0"/> <!-- Galeria Bałtycka 06 -->
    </route>
    <route id="pt_bus_116:2" edges="29114711#0 1362017843 1362017842 313992354#0 313992354#1 1362017841 313992351#0 60264047 287311357#0 287311357#3 287311357#4 27348585#0 27476801 287311363#0 1348067247 1348067246#0 287311364 236825277 -1316855122#3" >
        <stop busStop="3702069139" duration="20" until="47.0"/> <!-- Zabytkowa 01 -->
        <stop busStop="3699707968" duration="20" until="500.0"/> <!-- Galeria Bałtycka 05 -->
        <stop busStop="-9875512697" duration="20" until="608.0"/> <!-- Wrzeszcz PKP -->
    </route>
    <route id="pt_bus_124:0" edges="-368641585#1 1164203052 27476146#0 1343590243 227216231#0 236818215 236818214 187938710#0 27348585#0 61316915 287956205 25126523 1362019277 1362020490 1233834164 161297937 227216233 227681211 373856612 1069052593 227216232#0 1164856803#0 397056712#0 362762664#0 397056711#0 397056711#1" >
        <stop busStop="-3701948569" duration="20" until="42.0"/> <!-- Wrzeszcz PKP -->
        <stop busStop="3715012929" duration="20" until="173.0"/> <!-- Galeria Bałtycka 07 -->
        <stop busStop="1770503190" duration="20" until="264.0"/> <!-- Kilińskiego 02 -->
    </route>
    <route id="pt_bus_124:1" edges="29177181#0 176329208#0 1027195294#0 1220574353" >
        <stop busStop="3711898568" duration="20" until="122.0"/> <!-- Wrzeszcz PKP -->
    </route>
    <route id="pt_bus_126:0" edges="61293509 -61293490 -1178303967#1 61293073#0 -368641560#1 27476146#0 1343590243 227216231#0 236818215 236818214 161297931#0 432309716#0 287956206#0 287956206#2 1451328237#0 430532791 1323631883 430532793 430532795" >
        <stop busStop="3701948568" duration="20" until="69.0"/> <!-- Wrzeszcz PKP -->
        <stop busStop="3699707967" duration="20" until="250.0"/> <!-- Galeria Bałtycka 06 -->
    </route>
    <route id="pt_bus_126:1" edges="61293509 -61293490 -1178303967#1 61293073#0 -368641560#1 27476146#0 1343590243 227216231#0 236818215 236818214 161297931#0 432309716#0 287956206#0 287956206#2 1451328237#0 430532791 1323631883 430532793 430532795" >
        <stop busStop="3701948568" duration="20" until="101.0"/> <!-- Wrzeszcz PKP -->
        <stop busStop="3699707967" duration="20" until="282.0"/> <!-- Galeria Bałtycka 06 -->
    </route>
    <route id="pt_bus_126:2" edges="29114711#0 1362017843 1362017842 313992354#0 313992354#1 1362017841 313992351#0 60264047 287311357#0 287311357#3 287311357#4 27348585#0 27476801 287311363#0 1348067247 1348067246#0 287311364 236825277 -1316855122#3" >
        <stop busStop="3702069139" duration="20" until="94.0"/> <!-- Zabytkowa 01 -->
        <stop busStop="3699707968" duration="20" until="251.0"/> <!-- Galeria Bałtycka 05 -->
        <stop busStop="-9875512697" duration="20" until="357.0"/> <!-- Wrzeszcz PKP -->
    </route>
    <route id="pt_bus_126:3" edges="29114711#0 1362017843 1362017842 313992354#0 313992354#1 1362017841 313992351#0 60264047 287311357#0 287311357#3 287311357#4 27348585#0 27476801 287311363#0 1348067247 1348067246#0 287311364 236825277 -1316855122#3" >
        <stop busStop="3702069139" duration="20" until="127.0"/> <!-- Zabytkowa 01 -->
        <stop busStop="3699707968" duration="20" until="283.0"/> <!-- Galeria Bałtycka 05 -->
        <stop busStop="-9875512697" duration="20" until="391.0"/> <!-- Wrzeszcz PKP -->
    </route>
    <route id="pt_bus_127:0" edges="236832919#0 200568455#0 227216231#0 236818215 236818214 187938710#0 27348585#0 27476801 287311363#0 1348067247 1348067246#0 287311364 236825277 -1316855122#3" >
        <stop busStop="3715012927" duration="20" until="47.0"/> <!-- Jaśkowa Dolina 03 -->
        <stop busStop="3699707968" duration="20" until="269.0"/> <!-- Galeria Bałtycka 05 -->
        <stop busStop="-9875512697" duration="20" until="375.0"/> <!-- Wrzeszcz PKP -->
    </route>
    <route id="pt_bus_127:1" edges="236832919#0 200568455#0 227216231#0 236818215 236818214 187938710#0 27348585#0 61316915 287956205 25126523 1362019277 1362020490 1233834164 161297937 227216233 227681211 373856612 1069052593 227216232#0 1164856803#0 397056712#0 -397056712#2 -1164856803#1 -227216232#1 169400750#0 161297932 348733402#0 -203465646 -1027271884#2" >
        <stop busStop="3715012927" duration="20" until="79.0"/> <!-- Jaśkowa Dolina 03 -->
        <stop busStop="3715012929" duration="20" until="246.0"/> <!-- Galeria Bałtycka 07 -->
        <stop busStop="1770503190" duration="20" until="345.0"/> <!-- Kilińskiego 02 -->
        <stop busStop="-2076145884" duration="20" until="497.0"/> <!-- Skarżyńskiego 01 -->
    </route>
    <route id="pt_bus_127:2" edges="236832919#0 200568455#0 227216231#0 236818215 236818214 187938710#0 27348585#0 61316915 287956205 25126523 1362019277 1362020490 1233834164 161297937 227216233 227681211 373856612 1069052593 227216232#0 1164856803#0 397056712#0 -397056712#2 -1164856803#1 -227216232#1 169400750#0 161297932 348733402#0 -203465646 -1027271884#2" >
        <stop busStop="3715012927" duration="20" until="47.0"/> <!-- Jaśkowa Dolina 03 -->
        <stop busStop="3715012929" duration="20" until="207.0"/> <!-- Galeria Bałtycka 07 -->
        <stop busStop="1770503190" duration="20" until="322.0"/> <!-- Kilińskiego 02 -->
        <stop busStop="-2076145884" duration="20" until="500.0"/> <!-- Skarżyńskiego 01 -->
    </route>
    <route id="pt_bus_127:3" edges="1027271884#0 169400748 348733401#0 173669735#0 227681211 373856612 1069052593 227216232#0 1164856803#0 397056712#0 -397056712#2 -1164856803#1 -227216232#1 169400750#0 169400751#0 161297933 161297934 1362019276 29092803 942711932#0 61316958 236818220#0 27348632 287956206#0 287956206#2 1271126935 169400610#0 771467599#0 224821292#0 1147624737#0 1147624737#1 200568454#0" >
        <stop busStop="-1770503273" duration="20" until="153.0"/> <!-- Kilińskiego 01 -->
        <stop busStop="3699707966" duration="20" until="337.0"/> <!-- Galeria Bałtycka 04 -->
    </route>
    <route id="pt_bus_136:0" edges="29114711#0 1362017843 1362017842 313992354#0 313992354#1 1362017841 313992351#0 60264047 287311357#0 287311357#3 287311357#4 27348585#0 27476801 287311363#0 1348067247 1348067246#0 287311364 236825277 -1316855122#3" >
        <stop busStop="3702069139" duration="20" until="45.0"/> <!-- Zabytkowa 01 -->
        <stop busStop="3699707968" duration="20" until="194.0"/> <!-- Galeria Bałtycka 05 -->
        <stop busStop="-9875512697" duration="20" until="298.0"/> <!-- Wrzeszcz PKP -->
    </route>
    <route id="pt_bus_136:1" edges="29114711#0 1362017843 1362017842 313992354#0 313992354#1 1362017841 313992351#0 60264047 287311357#0 287311357#3 287311357#4 27348585#0 27476801 287311363#0 1348067247 1348067246#0 287311364 236825277 -1316855122#3" >
        <stop busStop="3702069139" duration="20" until="62.0"/> <!-- Zabytkowa 01 -->
        <stop busStop="3699707968" duration="20" until="366.0"/> <!-- Galeria Bałtycka 05 -->
        <stop busStop="-9875512697" duration="20" until="474.0"/> <!-- Wrzeszcz PKP -->
    </route>
    <route id="pt_bus_136:2" edges="29114711#0 1362017843 1362017842 313992354#0 313992354#1 1362017841 313992351#0 60264047 287311357#0 287311357#3 287311357#4 27348585#0 61316915 287956205" >
        <stop busStop="3702069139" duration="20" until="94.0"/> <!-- Zabytkowa 01 -->
        <stop busStop="3715012929" duration="20" until="269.0"/> <!-- Galeria Bałtycka 07 -->
    </route>
    <route id="pt_bus_136:3" edges="61293509 -61293490 -1178303967#1 61293073#0 -368641560#1 27476146#0 1343590243 227216231#0 236818215 236818214 161297931#0 432309716#0 287956206#0 287956206#2 1451328237#0 430532791 1323631883 430532793 430532795" >
        <stop busStop="3701948568" duration="20" until="43.0"/> <!-- Wrzeszcz PKP -->
        <stop busStop="3699707967" duration="20" until="223.0"/> <!-- Galeria Bałtycka 06 -->
    </route>
    <route id="pt_bus_149:0" edges="29114711#0 1362017843 1362017842 313992354#0 313992354#1 1362017841 313992351#0 60264047 287311357#0 287311357#3 287311357#4 27348585#0 27476801 287311363#0 1348067247 1348067246#0 287311364 236825277 -1316855122#3 -1147626421#1 61293500 -1180195345 -368641585#1 1164203052 368641560#0 1178303352#0 -225078984#2 1027195295#0 1180195346 -895850337 -256314608#1 664388547#0 224779155#0 449253144 -1337359712#2 -27475852 -1337360592#1 -1233897558#1 -1233892219 -1233892220#2 362762664#0 397056711#0 397056711#1" >
        <stop busStop="3702069139" duration="20" until="66.0"/> <!-- Zabytkowa 01 -->
        <stop busStop="3699707968" duration="20" until="261.0"/> <!-- Galeria Bałtycka 05 -->
        <stop busStop="-9875512697" duration="20" until="365.0"/> <!-- Wrzeszcz PKP -->
        <stop busStop="-3701948569" duration="20" until="464.0"/> <!-- Wrzeszcz PKP -->
        <stop busStop="-10582561980" duration="20" until="678.0"/> <!-- Nad Stawem 02 -->
    </route>
    <route id="pt_bus_149:1" edges="-397056711#1 -397056711#0 -362762664#2 1233892220#0 1233892219 1233897558#0 665075088 27475852 1337359712#0 661430011#0 820514338#0 29114162 176329208#0 1027195294#0 1220574353 61292939#0 1178303967#0 -366274825#1 61293509 -61293490 -1178303967#1 61293073#0 -368641560#1 27476146#0 1343590243 227216231#0 236818215 236818214 161297931#0 432309716#0 287956206#0 287956206#2 1451328237#0 430532791 1323631883 430532793 430532795" >
        <stop busStop="10582561979" duration="20" until="155.0"/> <!-- Nad Stawem 01 -->
        <stop busStop="3701948568" duration="20" until="376.0"/> <!-- Wrzeszcz PKP -->
        <stop busStop="3699707967" duration="20" until="542.0"/> <!-- Galeria Bałtycka 06 -->
    </route>
    <route id="pt_bus_157:0" edges="61293509 -61293490 -1178303967#1 61293073#0 -368641560#1 27476146#0 1343590243 227216231#0 236818215 236818214 161297931#0 432309716#0 287956206#0 287956206#2 1451328237#0 430532791 1323631883 430532793 430532795" >
        <stop busStop="3701948568" duration="20" until="44.0"/> <!-- Wrzeszcz PKP -->
        <stop busStop="3699707967" duration="20" until="277.0"/> <!-- Galeria Bałtycka 06 -->
    </route>
    <route id="pt_bus_157:1" edges="29114711#0 1362017843 1362017842 313992354#0 313992354#1 1362017841 313992351#0 60264047 287311357#0 287311357#3 287311357#4 27348585#0 27476801 287311363#0 1348067247 1348067246#0 287311364 236825277 -1316855122#3" >
        <stop busStop="3702069139" duration="20" until="117.0"/> <!-- Zabytkowa 01 -->
        <stop busStop="3699707968" duration="20" until="457.0"/> <!-- Galeria Bałtycka 05 -->
        <stop busStop="-9875512697" duration="20" until="562.0"/> <!-- Wrzeszcz PKP -->
    </route>
    <route id="pt_bus_157:2" edges="61293509 -61293490 -1178303967#1 61293073#0 -368641560#1 27476146#0 1343590243 227216231#0 236818215 236818214 161297931#0 432309716#0 287956206#0 287956206#2 1451328237#0 430532791 1323631883 430532793 430532795" >
        <stop busStop="3701948568" duration="20" until="42.0"/> <!-- Wrzeszcz PKP -->
        <stop busStop="3699707967" duration="20" until="249.0"/> <!-- Galeria Bałtycka 06 -->
    </route>
    <route id="pt_bus_157:3" edges="29114711#0 1362017843 1362017842 313992354#0 313992354#1 1362017841 313992351#0 60264047 287311357#0 287311357#3 287311357#4 27348585#0 27476801 287311363#0 1348067247 1348067246#0 287311364 236825277 -1316855122#3" >
        <stop busStop="3702069139" duration="20" until="49.0"/> <!-- Zabytkowa 01 -->
        <stop busStop="3699707968" duration="20" until="502.0"/> <!-- Galeria Bałtycka 05 -->
        <stop busStop="-9875512697" duration="20" until="607.0"/> <!-- Wrzeszcz PKP -->
    </route>
    <route id="pt_bus_157:4" edges="29114711#0 1362017843 1362017842 313992354#0 313992354#1 1362017841 313992351#0 60264047 287311357#0 287311357#3 287311357#4 27348585#0 27476801 287311363#0 1348067247 1348067246#0 287311364 236825277 -1316855122#3" >
        <stop busStop="3702069139" duration="20" until="59.0"/> <!-- Zabytkowa 01 -->
        <stop busStop="3699707968" duration="20" until="512.0"/> <!-- Galeria Bałtycka 05 -->
        <stop busStop="-9875512697" duration="20" until="620.0"/> <!-- Wrzeszcz PKP -->
    </route>
    <route id="pt_bus_157:5" edges="61293509 -61293490 -1178303967#1 61293073#0 -368641560#1 27476146#0 1343590243 227216231#0 236818215 236818214 161297931#0 432309716#0 287956206#0 287956206#2 1451328237#0 430532791 1323631883 430532793 430532795" >
        <stop busStop="3701948568" duration="20" until="104.0"/> <!-- Wrzeszcz PKP -->
        <stop busStop="3699707967" duration="20" until="282.0"/> <!-- Galeria Bałtycka 06 -->
    </route>
    <route id="pt_bus_158:0" edges="277203721 277203724 200568452#0 961539471 961539472 236811148 236811149#0 1271126935 187938713#0 287311357#0 287311357#3 287311357#4 27348585#0 27476801 287311363#0 1348067247 1348067246#0 287311364 236825277 -1316855122#3" >
        <stop busStop="2817336512" duration="20" until="109.0"/> <!-- Wojska Polskiego 04 -->
        <stop busStop="3699707968" duration="20" until="322.0"/> <!-- Galeria Bałtycka 05 -->
        <stop busStop="-9875512697" duration="20" until="427.0"/> <!-- Wrzeszcz PKP -->
    </route>
    <route id="pt_bus_158:1" edges="-368641585#1 1164203052 27476146#0 1343590243 227216231#0 236818215 236818214 187938710#0 27348585#0 61316915 287956205 25126523 1362019277 1362020490 1233834164 161297937 227216233 161297932 348733402#0 -203465646 -1027271884#2" >
        <stop busStop="-3701948569" duration="20" until="61.0"/> <!-- Wrzeszcz PKP -->
        <stop busStop="3715012929" duration="20" until="193.0"/> <!-- Galeria Bałtycka 07 -->
        <stop busStop="-2076145884" duration="20" until="322.0"/> <!-- Skarżyńskiego 01 -->
    </route>
    <route id="pt_bus_158:2" edges="277203721 277203724 200568452#0 961539471 961539472 236811148 236811149#0 1271126935 187938713#0 287311357#0 287311357#3 287311357#4 27348585#0 27476801 287311363#0 1348067247 1348067246#0 287311364 236825277 -1316855122#3" >
        <stop busStop="2817336512" duration="20" until="77.0"/> <!-- Wojska Polskiego 04 -->
        <stop busStop="3699707968" duration="20" until="364.0"/> <!-- Galeria Bałtycka 05 -->
        <stop busStop="-9875512697" duration="20" until="470.0"/> <!-- Wrzeszcz PKP -->
    </route>
    <route id="pt_bus_158:3" edges="277203721 277203724 200568452#0 961539471 961539472 236811148 236811149#0 1271126935 187938713#0 287311357#0 287311357#3 287311357#4 27348585#0 27476801 287311363#0 1348067247 1348067246#0 287311364 236825277 -1316855122#3" >
        <stop busStop="2817336512" duration="20" until="110.0"/> <!-- Wojska Polskiego 04 -->
        <stop busStop="3699707968" duration="20" until="432.0"/> <!-- Galeria Bałtycka 05 -->
        <stop busStop="-9875512697" duration="20" until="542.0"/> <!-- Wrzeszcz PKP -->
    </route>
    <route id="pt_bus_158:4" edges="-368641585#1 1164203052 27476146#0 1343590243 227216231#0 236818215 236818214 187938710#0 27348585#0 61316915 287956205 25126523 1362019277 1362020490 1233834164 161297937 227216233 161297932 348733402#0 -203465646 -1027271884#2" >
        <stop busStop="-3701948569" duration="20" until="43.0"/> <!-- Wrzeszcz PKP -->
        <stop busStop="3715012929" duration="20" until="173.0"/> <!-- Galeria Bałtycka 07 -->
        <stop busStop="-2076145884" duration="20" until="340.0"/> <!-- Skarżyńskiego 01 -->
    </route>
    <route id="pt_bus_158:5" edges="277203721 277203724 200568452#0 961539471 961539472 236811148 236811149#0 1271126935 187938713#0 287311357#0 287311357#3 287311357#4 27348585#0 27476801 287311363#0 1348067247 1348067246#0 287311364 236825277 -1316855122#3" >
        <stop busStop="2817336512" duration="20" until="52.0"/> <!-- Wojska Polskiego 04 -->
        <stop busStop="3699707968" duration="20" until="408.0"/> <!-- Galeria Bałtycka 05 -->
        <stop busStop="-9875512697" duration="20" until="512.0"/> <!-- Wrzeszcz PKP -->
    </route>
    <route id="pt_bus_162:0" edges="168136132 -61293493 -61293490 -1178303967#1 -61292939#1 -225078984#2 1027195295#0 895854935 27475506#0 1163972696#0" >
        <stop busStop="3701948570" duration="20" until="121.0"/> <!-- Wrzeszcz PKP -->
    </route>
    <route id="pt_bus_162:1" edges="168136132 -61293493 -61293490 -1178303967#1 -61292939#1 -225078984#2 1027195295#0 895854935 27475506#0 1163972696#0" >
        <stop busStop="3701948570" duration="20" until="45.0"/> <!-- Wrzeszcz PKP -->
    </route>
    <route id="pt_bus_162:2" edges="236832919#0 200568455#0 227216231#0 236818215 236818214 187938710#0 27348585#0 27476801 287311363#0 1348067247 1348067246#0 287311364 236825277 -1316855122#3" >
        <stop busStop="3715012927" duration="20" until="47.0"/> <!-- Jaśkowa Dolina 03 -->
        <stop busStop="3699707968" duration="20" until="372.0"/> <!-- Galeria Bałtycka 05 -->
        <stop busStop="-9875512697" duration="20" until="478.0"/> <!-- Wrzeszcz PKP -->
    </route>
    <route id="pt_bus_168:0" edges="29177181#0 176329208#0 1027195294#0 1220574353" >
        <stop busStop="3711898568" duration="20" until="105.0"/> <!-- Wrzeszcz PKP -->
    </route>
    <route id="pt_bus_168:1" edges="168136132 -61293493 -61293490 -1178303967#1 -61292939#1 -225078984#2 1027195295#0 895854935 27475506#0 1163972696#0" >
        <stop busStop="3701948570" duration="20" until="46.0"/> <!-- Wrzeszcz PKP -->
    </route>
    <route id="pt_bus_168:2" edges="168136132 -61293493 -61293490 -1178303967#1 -61292939#1 -225078984#2 1027195295#0 895854935 27475506#0 1163972696#0" >
        <stop busStop="3701948570" duration="20" until="46.0"/> <!-- Wrzeszcz PKP -->
    </route>
    <route id="pt_bus_168:3" edges="29177181#0 176329208#0 1027195294#0 1220574353" >
        <stop busStop="3711898568" duration="20" until="102.0"/> <!-- Wrzeszcz PKP -->
    </route>
    <route id="pt_bus_199:0" edges="29177181#0 176329208#0 1027195294#0 1220574353 61292939#0 1178303967#0 61293490 61293493 -368641585#1 1164203052 27476146#0 1343590243 227216231#0 236818215 236818214 187938710#0 169400609#0 224821293#0 224821293#2 1232799370 1232799371#0 1232799371#2 1232799371#3 1232799371#4 277203712 236809165" >
        <stop busStop="-3701948569" duration="20" until="166.0"/> <!-- Wrzeszcz PKP -->
        <stop busStop="3699707969" duration="20" until="315.0"/> <!-- Galeria Bałtycka 03 -->
    </route>
    <route id="pt_bus_199:1" edges="277203721 277203724 200568452#0 961539471 961539472 236811148 236811149#0 1271126935 187938713#0 287311357#0 287311357#3 287311357#4 27348585#0 27476801 287311363#0 1348067247 1348067246#0 287311364 236825277 -1316855122#3 -1147626421#1 81638130#0 61293524 168136132 -61293493 -61293490 -1178303967#1 -61292939#1 -225078984#2 1027195295#0 895854935 27475506#0 1163972696#0" >
        <stop busStop="2817336512" duration="20" until="48.0"/> <!-- Wojska Polskiego 04 -->
        <stop busStop="3699707968" duration="20" until="222.0"/> <!-- Galeria Bałtycka 05 -->
        <stop busStop="3701948570" duration="20" until="389.0"/> <!-- Wrzeszcz PKP -->
    </route>
    <route id="pt_bus_199:2" edges="277203721 277203724 200568452#0 961539471 961539472 236811148 236811149#0 1271126935 187938713#0 287311357#0 287311357#3 287311357#4 27348585#0 27476801 287311363#0 1348067247 1348067246#0 287311364 236825277 -1316855122#3 -1147626421#1 81638130#0 61293524 168136132 -61293493 -61293490 -1178303967#1 -61292939#1 -225078984#2 1027195295#0 895854935 27475506#0 1163972696#0" >
        <stop busStop="2817336512" duration="20" until="107.0"/> <!-- Wojska Polskiego 04 -->
        <stop busStop="3699707968" duration="20" until="464.0"/> <!-- Galeria Bałtycka 05 -->
        <stop busStop="3701948570" duration="20" until="630.0"/> <!-- Wrzeszcz PKP -->
    </route>
    <route id="pt_bus_199:3" edges="277203721 277203724 200568452#0 961539471 961539472 236811148 236811149#0 1271126935 187938713#0 287311357#0 287311357#3 287311357#4 27348585#0 27476801 287311363#0 1348067247 1348067246#0 287311364 236825277 -1316855122#3" >
        <stop busStop="2817336512" duration="20" until="133.0"/> <!-- Wojska Polskiego 04 -->
        <stop busStop="3699707968" duration="20" until="489.0"/> <!-- Galeria Bałtycka 05 -->
        <stop busStop="-9875512697" duration="20" until="593.0"/> <!-- Wrzeszcz PKP -->
    </route>
    <route id="pt_bus_199:4" edges="29177181#0 176329208#0 1027195294#0 1220574353 61292939#0 1178303967#0 61293490 61293493 -368641585#1 1164203052 27476146#0 1343590243 227216231#0 236818215 236818214 187938710#0 169400609#0 224821293#0 224821293#2 1232799370 1232799371#0 1232799371#2 1232799371#3 1232799371#4 277203712 236809165" >
        <stop busStop="-3701948569" duration="20" until="200.0"/> <!-- Wrzeszcz PKP -->
        <stop busStop="3699707969" duration="20" until="346.0"/> <!-- Galeria Bałtycka 03 -->
    </route>
    <route id="pt_bus_199:5" edges="-368641585#1 1164203052 27476146#0 1343590243 227216231#0 236818215 236818214 187938710#0 169400609#0 224821293#0 224821293#2 1232799370 1232799371#0 1232799371#2 1232799371#3 1232799371#4 277203712 236809165" >
        <stop busStop="-3701948569" duration="20" until="43.0"/> <!-- Wrzeszcz PKP -->
        <stop busStop="3699707969" duration="20" until="185.0"/> <!-- Galeria Bałtycka 03 -->
    </route>
    <route id="pt_bus_199:6" edges="29177181#0 176329208#0 1027195294#0 1220574353 61292939#0 1178303967#0 61293490 61293493 -368641585#1 1164203052 27476146#0 1343590243 227216231#0 236818215 236818214 187938710#0 169400609#0 224821293#0 224821293#2 1232799370 1232799371#0 1232799371#2 1232799371#3 1232799371#4 277203712 236809165" >
        <stop busStop="-3701948569" duration="20" until="192.0"/> <!-- Wrzeszcz PKP -->
        <stop busStop="3699707969" duration="20" until="337.0"/> <!-- Galeria Bałtycka 03 -->
    </route>
    <route id="pt_bus_227:0" edges="1027271884#0 169400748 348733401#0 161297933 161297934 1362019276 29092803 942711932#0 61316958 236818220#0 27348632 287956206#0 287956206#2 1451328237#0 430532791 1323631883 430532793 430532795" >
        <stop busStop="1732884308" duration="20" until="68.0"/> <!-- Skarżyńskiego -->
        <stop busStop="3699707967" duration="20" until="197.0"/> <!-- Galeria Bałtycka 06 -->
    </route>
    <route id="pt_bus_227:1" edges="1027271884#0 169400748 348733401#0 161297933 161297934 1362019276 29092803 942711932#0 61316958 236818220#0 27348632 287956206#0 287956206#2 1451328237#0 430532791 1323631883 430532793 430532795" >
        <stop busStop="1732884308" duration="20" until="68.0"/> <!-- Skarżyńskiego -->
        <stop busStop="3699707967" duration="20" until="225.0"/> <!-- Galeria Bałtycka 06 -->
    </route>
    <route id="pt_bus_227:2" edges="29114711#0 1362017843 1362017842 313992354#0 313992354#1 1362017841 313992351#0 60264047 287311357#0 287311357#3 287311357#4 27348585#0 61316915 287956205 25126523 1362019277 1362020490 1233834164 161297937 227216233 161297932 348733402#0 -203465646 -1027271884#2" >
        <stop busStop="3702069139" duration="20" until="46.0"/> <!-- Zabytkowa 01 -->
        <stop busStop="3715012929" duration="20" until="186.0"/> <!-- Galeria Bałtycka 07 -->
        <stop busStop="-2076145884" duration="20" until="311.0"/> <!-- Skarżyńskiego 01 -->
    </route>
    <route id="pt_bus_258:0" edges="277203721 277203724 200568452#0 961539471 961539472 236811148 236811149#0 1271126935 187938713#0 287311357#0 287311357#3 287311357#4 27348585#0 27476801 287311363#0 1348067247 1348067246#0 287311364 236825277 -1316855122#3" >
        <stop busStop="2817336512" duration="20" until="81.0"/> <!-- Wojska Polskiego 04 -->
        <stop busStop="3699707968" duration="20" until="293.0"/> <!-- Galeria Bałtycka 05 -->
        <stop busStop="-9875512697" duration="20" until="398.0"/> <!-- Wrzeszcz PKP -->
    </route>
    <route id="pt_bus_258:1" edges="-368641585#1 1164203052 27476146#0 1343590243 227216231#0 236818215 236818214 187938710#0 27348585#0 61316915 287956205 25126523 1362019277 1362020490 1233834164 161297937 227216233 161297932 348733402#0 -203465646 -1027271884#2" >
        <stop busStop="-3701948569" duration="20" until="44.0"/> <!-- Wrzeszcz PKP -->
        <stop busStop="3715012929" duration="20" until="176.0"/> <!-- Galeria Bałtycka 07 -->
        <stop busStop="-2076145884" duration="20" until="305.0"/> <!-- Skarżyńskiego 01 -->
    </route>
    <route id="pt_bus_262:0" edges="168136132 -61293493 -61293490 -1178303967#1 -61292939#1 -225078984#2 1027195295#0 895854935 27475506#0 1163972696#0" >
        <stop busStop="3701948570" duration="20" until="89.0"/> <!-- Wrzeszcz PKP -->
    </route>