<?xml version="1.0" encoding="UTF-8"?>

<!-- generated on 2026-03-07 14:26:51.555828 by Eclipse SUMO $Id: ptlines2flows.py v1_3_1+0313-ccb31df3eb jakob.erdmann@dlr.de 2019-09-02 13:26:32 +0200 $ v1_26_0+0000-fa7df22d7f1
<configuration>
    <net-file value="C:\Program Files (x86)\Eclipse\Sumo\tools\2026-03-07-14-26-30\osm.net.xml.gz"/>
    <ptlines-file value="C:\Program Files (x86)\Eclipse\Sumo\tools\2026-03-07-14-26-30\osm_ptlines.xml"/>
    <ptstops-file value="C:\Program Files (x86)\Eclipse\Sumo\tools\2026-03-07-14-26-30\osm_stops.add.xml"/>
    <output-file value="C:\Program Files (x86)\Eclipse\Sumo\tools\2026-03-07-14-26-30\osm_pt.rou.xml"/>
    <stopinfos-file value="C:\Program Files (x86)\Eclipse\Sumo\tools\2026-03-07-14-26-30\stopinfos.xml"/>
    <routes-file value="C:\Program Files (x86)\Eclipse\Sumo\tools\2026-03-07-14-26-30\vehroutes.xml"/>
    <trips-file value="C:\Program Files (x86)\Eclipse\Sumo\tools\2026-03-07-14-26-30\trips.trips.xml"/>
    <min-stops value="0"/>
    <extend-to-fringe value="True"/>
    <random-begin value="True"/>
    <seed value="42"/>
    <ignore-errors value="True"/>
    <vtype-prefix value="pt_"/>
    <verbose value="True"/>
</configuration>
-->

<routes xmlns:xsi="http://www.w3.org/2001/XMLSchema-instance" xsi:noNamespaceSchemaLocation="http://sumo.dlr.de/xsd/routes_file.xsd">
    <vType id="pt_bus" vClass="bus" speedFactor="0.95"/>
    <vType id="pt_tram" vClass="tram" speedFactor="1.0"/>
    <vType id="pt_train" vClass="rail"/>
    <vType id="pt_subway" vClass="subway"/>
    <vType id="pt_light_rail" vClass="rail_urban"/>
    <vType id="pt_monorail" vClass="rail_urban"/>
    <vType id="pt_trolleybus" vClass="bus" speedFactor="0.95"/>
    <vType id="pt_minibus" vClass="bus" speedFactor="0.95"/>
    <vType id="pt_share_taxi" vClass="taxi" speedFactor="0.95"/>
    <vType id="pt_aerialway" vClass="cable_car" length="2.5" width="2" personCapacity="4"/>
    <vType id="pt_ferry" vClass="ship"/>
    <trip id="0_bus_136:0" type="pt_bus" depart="0.0" departLane="best" from="29114711#0" to="-1316855122#3">
        <stop busStop="3702069139" duration="30"/>  <!-- Zabytkowa 01 -->
        <stop busStop="3699707968" duration="30"/>  <!-- Galeria Bałtycka 05 -->
        <stop busStop="-9875512697" duration="30"/>  <!-- Wrzeszcz PKP -->
    </trip>
    <trip id="1_bus_116:0" type="pt_bus" depart="3.0" departLane="best" from="61293509" to="430532795">
        <stop busStop="3701948568" duration="30"/>  <!-- Wrzeszcz PKP -->
        <stop busStop="3699707967" duration="30"/>  <!-- Galeria Bałtycka 06 -->
    </trip>
    <trip id="2_bus_110:0" type="pt_bus" depart="6.0" departLane="best" from="29114711#0" to="-1316855122#3">
        <stop busStop="3702069139" duration="30"/>  <!-- Zabytkowa 01 -->
        <stop busStop="3699707968" duration="30"/>  <!-- Galeria Bałtycka 05 -->
        <stop busStop="-9875512697" duration="30"/>  <!-- Wrzeszcz PKP -->
    </trip>
    <trip id="4_bus_124:0" type="pt_bus" depart="15.0" departLane="best" from="-368641585#1" to="397056711#1">
        <stop busStop="-3701948569" duration="30"/>  <!-- Wrzeszcz PKP -->
        <stop busStop="3715012929" duration="30"/>  <!-- Galeria Bałtycka 07 -->
        <stop busStop="1770503190" duration="30"/>  <!-- Kilińskiego 02 -->
    </trip>
    <trip id="5_bus_126:0" type="pt_bus" depart="15.0" departLane="best" from="61293509" to="430532795">
        <stop busStop="3701948568" duration="30"/>  <!-- Wrzeszcz PKP -->
        <stop busStop="3699707967" duration="30"/>  <!-- Galeria Bałtycka 06 -->
    </trip>
    <trip id="6_bus_168:0" type="pt_bus" depart="17.0" departLane="best" from="29177181#0" to="1220574353">
        <stop busStop="3711898568" duration="30"/>  <!-- Wrzeszcz PKP -->
    </trip>
    <trip id="7_bus_126:1" type="pt_bus" depart="19.0" departLane="best" from="61293509" to="430532795">
        <stop busStop="3701948568" duration="30"/>  <!-- Wrzeszcz PKP -->
        <stop busStop="3699707967" duration="30"/>  <!-- Galeria Bałtycka 06 -->
    </trip>
    <trip id="8_bus_126:2" type="pt_bus" depart="27.0" departLane="best" from="29114711#0" to="-1316855122#3">
        <stop busStop="3702069139" duration="30"/>  <!-- Zabytkowa 01 -->
        <stop busStop="3699707968" duration="30"/>  <!-- Galeria Bałtycka 05 -->
        <stop busStop="-9875512697" duration="30"/>  <!-- Wrzeszcz PKP -->
    </trip>
    <trip id="9_bus_126:3" type="pt_bus" depart="28.0" departLane="best" from="29114711#0" to="-1316855122#3">
        <stop busStop="3702069139" duration="30"/>  <!-- Zabytkowa 01 -->
        <stop busStop="3699707968" duration="30"/>  <!-- Galeria Bałtycka 05 -->
        <stop busStop="-9875512697" duration="30"/>  <!-- Wrzeszcz PKP -->
    </trip>
    <trip id="11_train_PR:0" type="pt_train" depart="47.0" departLane="best" from="-1083813154#0" to="-298828640#0">
        <stop busStop="-9932028115" duration="30"/>  <!-- Gdańsk Wrzeszcz -->
    </trip>
    <trip id="12_train_PR:1" type="pt_train" depart="52.0" departLane="best" from="-1083813154#0" to="-298828640#0">
        <stop busStop="-9932028115" duration="30"/>  <!-- Gdańsk Wrzeszcz -->
    </trip>
    <trip id="13_train_R:0" type="pt_train" depart="54.0" departLane="best" from="321284935" to="999619920#2">
        <stop busStop="3279422501" duration="30"/>  <!-- Gdańsk Wrzeszcz -->
    </trip>
    <trip id="14_train_R:1" type="pt_train" depart="55.0" departLane="best" from="239430023" to="321284936">
        <stop busStop="2472070935" duration="30"/>  <!-- Gdańsk Wrzeszcz -->
    </trip>
    <trip id="15_train_R:2" type="pt_train" depart="58.0" departLane="best" from="239430023" to="321284936">
        <stop busStop="2472070935" duration="30"/>  <!-- Gdańsk Wrzeszcz -->
    </trip>
    <trip id="16_train_R:3" type="pt_train" depart="60.0" departLane="best" from="-177188734" to="-999619907#0">
        <stop busStop="-3279422501" duration="30"/>  <!-- Gdańsk Wrzeszcz -->
    </trip>
    <trip id="17_bus_168:1" type="pt_bus" depart="65.0" departLane="best" from="168136132" to="1163972696#0">
        <stop busStop="3701948570" duration="30"/>  <!-- Wrzeszcz PKP -->
    </trip>
    <trip id="18_bus_115:0" type="pt_bus" depart="66.0" departLane="best" from="29177181#0" to="1220574353">
        <stop busStop="3711898568" duration="30"/>  <!-- Wrzeszcz PKP -->
    </trip>
    <trip id="19_bus_115:1" type="pt_bus" depart="91.0" departLane="best" from="168136132" to="1163972696#0">
        <stop busStop="3701948570" duration="30"/>  <!-- Wrzeszcz PKP -->
    </trip>
    <trip id="20_bus_115:2" type="pt_bus" depart="93.0" departLane="best" from="29177181#0" to="1220574353">
        <stop busStop="3711898568" duration="30"/>  <!-- Wrzeszcz PKP -->
    </trip>
    <trip id="21_bus_262:0" type="pt_bus" depart="98.0" departLane="best" from="168136132" to="1163972696#0">
        <stop busStop="3701948570" duration="30"/>  <!-- Wrzeszcz PKP -->
    </trip>
    <trip id="22_bus_162:0" type="pt_bus" depart="102.0" departLane="best" from="168136132" to="1163972696#0">
        <stop busStop="3701948570" duration="30"/>  <!-- Wrzeszcz PKP -->
    </trip>
    <trip id="23_bus_810:0" type="pt_bus" depart="107.0" departLane="best" from="29114711#0" to="200568454#0">
        <stop busStop="3699707966" duration="30"/>  <!-- Galeria Bałtycka 04 -->
    </trip>
    <trip id="24_bus_810:1" type="pt_bus" depart="119.0" departLane="best" from="29177181#0" to="430532795">
        <stop busStop="-3701948563" duration="30"/>  <!-- Wrzeszcz PKP -->
        <stop busStop="3699707967" duration="30"/>  <!-- Galeria Bałtycka 06 -->
    </trip>
    <trip id="26_bus_199:0" type="pt_bus" depart="126.0" departLane="best" from="29177181#0" to="236809165">
        <stop busStop="-3701948569" duration="30"/>  <!-- Wrzeszcz PKP -->
        <stop busStop="3699707969" duration="30"/>  <!-- Galeria Bałtycka 03 -->
    </trip>
    <trip id="27_bus_199:1" type="pt_bus" depart="131.0" departLane="best" from="277203721" to="1163972696#0">
        <stop busStop="2817336512" duration="30"/>  <!-- Wojska Polskiego 04 -->
        <stop busStop="3699707968" duration="30"/>  <!-- Galeria Bałtycka 05 -->
        <stop busStop="3701948570" duration="30"/>  <!-- Wrzeszcz PKP -->
    </trip>
    <trip id="28_bus_149:0" type="pt_bus" depart="131.0" departLane="best" from="29114711#0" to="397056711#1">
        <stop busStop="3702069139" duration="30"/>  <!-- Zabytkowa 01 -->
        <stop busStop="3699707968" duration="30"/>  <!-- Galeria Bałtycka 05 -->
        <stop busStop="-9875512697" duration="30"/>  <!-- Wrzeszcz PKP -->
        <stop busStop="-3701948569" duration="30"/>  <!-- Wrzeszcz PKP -->
        <stop busStop="-10582561980" duration="30"/>  <!-- Nad Stawem 02 -->
    </trip>
    <trip id="29_bus_124:1" type="pt_bus" depart="132.0" departLane="best" from="29177181#0" to="1220574353">
        <stop busStop="3711898568" duration="30"/>  <!-- Wrzeszcz PKP -->
    </trip>
    <trip id="30_bus_258:0" type="pt_bus" depart="133.0" departLane="best" from="277203721" to="-1316855122#3">
        <stop busStop="2817336512" duration="30"/>  <!-- Wojska Polskiego 04 -->
        <stop busStop="3699707968" duration="30"/>  <!-- Galeria Bałtycka 05 -->
        <stop busStop="-9875512697" duration="30"/>  <!-- Wrzeszcz PKP -->
    </trip>
    <trip id="31_bus_258:1" type="pt_bus" depart="136.0" departLane="best" from="-368641585#1" to="-1027271884#2">
        <stop busStop="-3701948569" duration="30"/>  <!-- Wrzeszcz PKP -->
        <stop busStop="3715012929" duration="30"/>  <!-- Galeria Bałtycka 07 -->
        <stop busStop="-2076145884" duration="30"/>  <!-- Skarżyńskiego 01 -->
    </trip>
    <trip id="32_tram_11:0" type="pt_tram" depart="137.0" departLane="best" from="182045481#0" to="182045481#4">
        <stop busStop="2448014062" duration="30"/>  <!-- Politechnika -->
        <stop busStop="1923923831" duration="30"/>  <!-- Miszewskiego 01 -->
        <stop busStop="1706849198" duration="30"/>  <!-- Jaśkowa Dolina 01 -->
        <stop busStop="1923923828" duration="30"/>  <!-- Klonowa -->
        <stop busStop="1923923896" duration="30"/>  <!-- Galeria Bałtycka 01 -->
    </trip>
    <trip id="33_tram_11:1" type="pt_tram" depart="139.0" departLane="best" from="24811285#3" to="24811285#6">
        <stop busStop="269557596" duration="30"/>  <!-- Galeria Bałtycka 02 -->
        <stop busStop="269557594" duration="30"/>  <!-- Klonowa -->
        <stop busStop="3680535418" duration="30"/>  <!-- Jaśkowa Dolina 02 -->
        <stop busStop="269557592" duration="30"/>  <!-- Miszewskiego 02 -->
        <stop busStop="1014671550" duration="30"/>  <!-- Politechnika -->
    </trip>
    <trip id="34_bus_158:0" type="pt_bus" depart="147.0" departLane="best" from="277203721" to="-1316855122#3">
        <stop busStop="2817336512" duration="30"/>  <!-- Wojska Polskiego 04 -->
        <stop busStop="3699707968" duration="30"/>  <!-- Galeria Bałtycka 05 -->
        <stop busStop="-9875512697" duration="30"/>  <!-- Wrzeszcz PKP -->
    </trip>
    <trip id="35_bus_158:1" type="pt_bus" depart="157.0" departLane="best" from="-368641585#1" to="-1027271884#2">
        <stop busStop="-3701948569" duration="30"/>  <!-- Wrzeszcz PKP -->
        <stop busStop="3715012929" duration="30"/>  <!-- Galeria Bałtycka 07 -->
        <stop busStop="-2076145884" duration="30"/>  <!-- Skarżyńskiego 01 -->
    </trip>
    <trip id="39_bus_227:0" type="pt_bus" depart="160.0" departLane="best" from="1027271884#0" to="430532795">
        <stop busStop="1732884308" duration="30"/>  <!-- Skarżyńskiego -->
        <stop busStop="3699707967" duration="30"/>  <!-- Galeria Bałtycka 06 -->
    </trip>
    <trip id="40_tram_5:0" type="pt_tram" depart="160.0" departLane="best" from="24811285#3" to="24811285#6">
        <stop busStop="269557596" duration="30"/>  <!-- Galeria Bałtycka 02 -->
        <stop busStop="269557594" duration="30"/>  <!-- Klonowa -->
        <stop busStop="3680535418" duration="30"/>  <!-- Jaśkowa Dolina 02 -->
        <stop busStop="269557592" duration="30"/>  <!-- Miszewskiego 02 -->
        <stop busStop="1014671550" duration="30"/>  <!-- Politechnika -->
    </trip>
    <trip id="41_tram_5:1" type="pt_tram" depart="165.0" departLane="best" from="24811285#3" to="24811285#6">
        <stop busStop="269557596" duration="30"/>  <!-- Galeria Bałtycka 02 -->
        <stop busStop="269557594" duration="30"/>  <!-- Klonowa -->
        <stop busStop="3680535418" duration="30"/>  <!-- Jaśkowa Dolina 02 -->
        <stop busStop="269557592" duration="30"/>  <!-- Miszewskiego 02 -->
        <stop busStop="1014671550" duration="30"/>  <!-- Politechnika -->
    </trip>
    <trip id="42_tram_5:2" type="pt_tram" depart="166.0" departLane="best" from="182045481#0" to="182045481#4">
        <stop busStop="2448014062" duration="30"/>  <!-- Politechnika -->
        <stop busStop="1923923831" duration="30"/>  <!-- Miszewskiego 01 -->
        <stop busStop="1706849198" duration="30"/>  <!-- Jaśkowa Dolina 01 -->
        <stop busStop="1923923828" duration="30"/>  <!-- Klonowa -->
        <stop busStop="1923923896" duration="30"/>  <!-- Galeria Bałtycka 01 -->
    </trip>
    <trip id="43_tram_5:3" type="pt_tram" depart="173.0" departLane="best" from="182045481#0" to="182045481#4">
        <stop busStop="2448014062" duration="30"/>  <!-- Politechnika -->
        <stop busStop="1923923831" duration="30"/>  <!-- Miszewskiego 01 -->
        <stop busStop="1706849198" duration="30"/>  <!-- Jaśkowa Dolina 01 -->
        <stop busStop="1923923828" duration="30"/>  <!-- Klonowa -->
        <stop busStop="1923923896" duration="30"/>  <!-- Galeria Bałtycka 01 -->
    </trip>
    <trip id="44_tram_5:4" type="pt_tram" depart="179.0" departLane="best" from="182045481#0" to="182045481#4">
        <stop busStop="2448014062" duration="30"/>  <!-- Politechnika -->
        <stop busStop="1923923831" duration="30"/>  <!-- Miszewskiego 01 -->
        <stop busStop="1706849198" duration="30"/>  <!-- Jaśkowa Dolina 01 -->
        <stop busStop="1923923828" duration="30"/>  <!-- Klonowa -->
        <stop busStop="1923923896" duration="30"/>  <!-- Galeria Bałtycka 01 -->
    </trip>
    <trip id="45_tram_6:0" type="pt_tram" depart="188.0" departLane="best" from="182045481#0" to="182045481#4">
        <stop busStop="2448014062" duration="30"/>  <!-- Politechnika -->
        <stop busStop="1923923831" duration="30"/>  <!-- Miszewskiego 01 -->
        <stop busStop="1706849198" duration="30"/>  <!-- Jaśkowa Dolina 01 -->
        <stop busStop="1923923828" duration="30"/>  <!-- Klonowa -->
        <stop busStop="1923923896" duration="30"/>  <!-- Galeria Bałtycka 01 -->
    </trip>
    <trip id="46_tram_6:1" type="pt_tram" depart="189.0" departLane="best" from="24811285#3" to="24811285#6">
        <stop busStop="269557596" duration="30"/>  <!-- Galeria Bałtycka 02 -->
        <stop busStop="269557594" duration="30"/>  <!-- Klonowa -->
        <stop busStop="3680535418" duration="30"/>  <!-- Jaśkowa Dolina 02 -->
        <stop busStop="269557592" duration="30"/>  <!-- Miszewskiego 02 -->
        <stop busStop="1014671550" duration="30"/>  <!-- Politechnika -->
    </trip>
    <trip id="47_tram_6:2" type="pt_tram" depart="194.0" departLane="best" from="24811285#3" to="24811285#6">
        <stop busStop="269557596" duration="30"/>  <!-- Galeria Bałtycka 02 -->
        <stop busStop="269557594" duration="30"/>  <!-- Klonowa -->
        <stop busStop="3680535418" duration="30"/>  <!-- Jaśkowa Dolina 02 -->
        <stop busStop="269557592" duration="30"/>  <!-- Miszewskiego 02 -->
        <stop busStop="1014671550" duration="30"/>  <!-- Politechnika -->
    </trip>
    <trip id="48_tram_11:2" type="pt_tram" depart="201.0" departLane="best" from="24811285#3" to="24811285#6">
        <stop busStop="269557596" duration="30"/>  <!-- Galeria Bałtycka 02 -->
        <stop busStop="269557594" duration="30"/>  <!-- Klonowa -->
        <stop busStop="3680535418" duration="30"/>  <!-- Jaśkowa Dolina 02 -->
        <stop busStop="269557592" duration="30"/>  <!-- Miszewskiego 02 -->
        <stop busStop="1014671550" duration="30"/>  <!-- Politechnika -->
    </trip>
    <trip id="49_tram_12:0" type="pt_tram" depart="204.0" departLane="best" from="182045481#0" to="182045481#4">
        <stop busStop="2448014062" duration="30"/>  <!-- Politechnika -->
        <stop busStop="1923923831" duration="30"/>  <!-- Miszewskiego 01 -->
        <stop busStop="1706849198" duration="30"/>  <!-- Jaśkowa Dolina 01 -->
        <stop busStop="1923923828" duration="30"/>  <!-- Klonowa -->
        <stop busStop="1923923896" duration="30"/>  <!-- Galeria Bałtycka 01 -->
    </trip>
    <trip id="50_bus_158:2" type="pt_bus" depart="218.0" departLane="best" from="277203721" to="-1316855122#3">
        <stop busStop="2817336512" duration="30"/>  <!-- Wojska Polskiego 04 -->
        <stop busStop="3699707968" duration="30"/>  <!-- Galeria Bałtycka 05 -->
        <stop busStop="-9875512697" duration="30"/>  <!-- Wrzeszcz PKP -->
    </trip>
    <trip id="51_bus_158:3" type="pt_bus" depart="222.0" departLane="best" from="277203721" to="-1316855122#3">
        <stop busStop="2817336512" duration="30"/>  <!-- Wojska Polskiego 04 -->
        <stop busStop="3699707968" duration="30"/>  <!-- Galeria Bałtycka 05 -->
        <stop busStop="-9875512697" duration="30"/>  <!-- Wrzeszcz PKP -->
    </trip>
    <trip id="52_bus_162:1" type="pt_bus" depart="227.0" departLane="best" from="168136132" to="1163972696#0">
        <stop busStop="3701948570" duration="30"/>  <!-- Wrzeszcz PKP -->
    </trip>
    <trip id="53_bus_110:1" type="pt_bus" depart="227.0" departLane="best" from="61293509" to="430532795">
        <stop busStop="3701948568" duration="30"/>  <!-- Wrzeszcz PKP -->
        <stop busStop="3699707967" duration="30"/>  <!-- Galeria Bałtycka 06 -->
    </trip>
    <trip id="54_bus_110:2" type="pt_bus" depart="228.0" departLane="best" from="29114711#0" to="-1316855122#3">
        <stop busStop="3702069139" duration="30"/>  <!-- Zabytkowa 01 -->
        <stop busStop="3699707968" duration="30"/>  <!-- Galeria Bałtycka 05 -->
        <stop busStop="-9875512697" duration="30"/>  <!-- Wrzeszcz PKP -->
    </trip>
    <trip id="55_bus_127:0" type="pt_bus" depart="237.0" departLane="best" from="236832919#0" to="-1316855122#3">
        <stop busStop="3715012927" duration="30"/>  <!-- Jaśkowa Dolina 03 -->
        <stop busStop="3699707968" duration="30"/>  <!-- Galeria Bałtycka 05 -->
        <stop busStop="-9875512697" duration="30"/>  <!-- Wrzeszcz PKP -->
    </trip>
    <trip id="56_bus_127:1" type="pt_bus" depart="239.0" departLane="best" from="236832919#0" to="-1027271884#2">
        <stop busStop="3715012927" duration="30"/>  <!-- Jaśkowa Dolina 03 -->
        <stop busStop="3715012929" duration="30"/>  <!-- Galeria Bałtycka 07 -->
        <stop busStop="1770503190" duration="30"/>  <!-- Kilińskiego 02 -->
        <stop busStop="-2076145884" duration="30"/>  <!-- Skarżyńskiego 01 -->
    </trip>
    <trip id="57_bus_136:1" type="pt_bus" depart="253.0" departLane="best" from="29114711#0" to="-1316855122#3">
        <stop busStop="3702069139" duration="30"/>  <!-- Zabytkowa 01 -->
        <stop busStop="3699707968" duration="30"/>  <!-- Galeria Bałtycka 05 -->
        <stop busStop="-9875512697" duration="30"/>  <!-- Wrzeszcz PKP -->
    </trip>
    <trip id="58_bus_136:2" type="pt_bus" depart="253.0" departLane="best" from="29114711#0" to="287956205">
        <stop busStop="3702069139" duration="30"/>  <!-- Zabytkowa 01 -->
        <stop busStop="3715012929" duration="30"/>  <!-- Galeria Bałtycka 07 -->
    </trip>
    <trip id="59_bus_262:1" type="pt_bus" depart="260.0" departLane="best" from="277203721" to="1163972696#0">
        <stop busStop="2817336512" duration="30"/>  <!-- Wojska Polskiego 04 -->
        <stop busStop="3699707968" duration="30"/>  <!-- Galeria Bałtycka 05 -->
        <stop busStop="3701948570" duration="30"/>  <!-- Wrzeszcz PKP -->
    </trip>
    <trip id="60_bus_157:0" type="pt_bus" depart="272.0" departLane="best" from="61293509" to="430532795">
        <stop busStop="3701948568" duration="30"/>  <!-- Wrzeszcz PKP -->
        <stop busStop="3699707967" duration="30"/>  <!-- Galeria Bałtycka 06 -->
    </trip>
    <trip id="61_bus_157:1" type="pt_bus" depart="275.0" departLane="best" from="29114711#0" to="-1316855122#3">
        <stop busStop="3702069139" duration="30"/>  <!-- Zabytkowa 01 -->
        <stop busStop="3699707968" duration="30"/>  <!-- Galeria Bałtycka 05 -->
        <stop busStop="-9875512697" duration="30"/>  <!-- Wrzeszcz PKP -->
    </trip>
    <trip id="62_bus_168:2" type="pt_bus" depart="300.0" departLane="best" from="168136132" to="1163972696#0">
        <stop busStop="3701948570" duration="30"/>  <!-- Wrzeszcz PKP -->
    </trip>
    <trip id="63_bus_168:3" type="pt_bus" depart="303.0" departLane="best" from="29177181#0" to="1220574353">
        <stop busStop="3711898568" duration="30"/>  <!-- Wrzeszcz PKP -->
    </trip>
    <trip id="64_bus_199:2" type="pt_bus" depart="305.0" departLane="best" from="277203721" to="1163972696#0">
        <stop busStop="2817336512" duration="30"/>  <!-- Wojska Polskiego 04 -->
        <stop busStop="3699707968" duration="30"/>  <!-- Galeria Bałtycka 05 -->
        <stop busStop="3701948570" duration="30"/>  <!-- Wrzeszcz PKP -->
    </trip>
    <trip id="65_bus_199:3" type="pt_bus" depart="317.0" departLane="best" from="277203721" to="-1316855122#3">
        <stop busStop="2817336512" duration="30"/>  <!-- Wojska Polskiego 04 -->
        <stop busStop="3699707968" duration="30"/>  <!-- Galeria Bałtycka 05 -->
        <stop busStop="-9875512697" duration="30"/>  <!-- Wrzeszcz PKP -->
    </trip>
    <trip id="66_bus_199:4" type="pt_bus" depart="318.0" departLane="best" from="29177181#0" to="236809165">
        <stop busStop="-3701948569" duration="30"/>  <!-- Wrzeszcz PKP -->
        <stop busStop="3699707969" duration="30"/>  <!-- Galeria Bałtycka 03 -->
    </trip>
    <trip id="67_bus_199:5" type="pt_bus" depart="321.0" departLane="best" from="-368641585#1" to="236809165">
        <stop busStop="-3701948569" duration="30"/>  <!-- Wrzeszcz PKP -->
        <stop busStop="3699707969" duration="30"/>  <!-- Galeria Bałtycka 03 -->
    </trip>
    <trip id="77_bus_227:1" type="pt_bus" depart="362.0" departLane="best" from="1027271884#0" to="430532795">
        <stop busStop="1732884308" duration="30"/>  <!-- Skarżyńskiego -->
        <stop busStop="3699707967" duration="30"/>  <!-- Galeria Bałtycka 06 -->
    </trip>
    <trip id="78_bus_199:6" type="pt_bus" depart="365.0" departLane="best" from="29177181#0" to="236809165">
        <stop busStop="-3701948569" duration="30"/>  <!-- Wrzeszcz PKP -->
        <stop busStop="3699707969" duration="30"/>  <!-- Galeria Bałtycka 03 -->
    </trip>
    <trip id="79_train_R:4" type="pt_train" depart="365.0" departLane="best" from="321284935" to="999619920#2">
        <stop busStop="3279422501" duration="30"/>  <!-- Gdańsk Wrzeszcz -->
    </trip>
    <trip id="80_bus_262:2" type="pt_bus" depart="371.0" departLane="best" from="236832919#0" to="236809165">
        <stop busStop="3715012927" duration="30"/>  <!-- Jaśkowa Dolina 03 -->
        <stop busStop="3699707969" duration="30"/>  <!-- Galeria Bałtycka 03 -->
    </trip>
    <trip id="81_bus_157:2" type="pt_bus" depart="376.0" departLane="best" from="61293509" to="430532795">
        <stop busStop="3701948568" duration="30"/>  <!-- Wrzeszcz PKP -->
        <stop busStop="3699707967" duration="30"/>  <!-- Galeria Bałtycka 06 -->
    </trip>
    <trip id="82_bus_157:3" type="pt_bus" depart="381.0" departLane="best" from="29114711#0" to="-1316855122#3">
        <stop busStop="3702069139" duration="30"/>  <!-- Zabytkowa 01 -->
        <stop busStop="3699707968" duration="30"/>  <!-- Galeria Bałtycka 05 -->
        <stop busStop="-9875512697" duration="30"/>  <!-- Wrzeszcz PKP -->
    </trip>
    <trip id="83_train_PR:2" type="pt_train" depart="383.0" departLane="best" from="298828640#0" to="684638797#1">
        <stop busStop="9932028115" duration="30"/>  <!-- Gdańsk Wrzeszcz -->
    </trip>
    <trip id="84_train_PR:3" type="pt_train" depart="383.0" departLane="best" from="1417601252#1" to="375212953#1">
        <stop busStop="9932028116" duration="30"/>  <!-- Gdańsk Wrzeszcz -->
    </trip>
    <trip id="85_train_45103:0" type="pt_train" depart="383.0" departLane="best" from="321284935" to="999619920#2">
        <stop busStop="3279422501" duration="30"/>  <!-- Gdańsk Wrzeszcz -->
    </trip>
    <trip id="86_train_3504:0" type="pt_train" depart="384.0" departLane="best" from="321284935" to="999619920#2">
        <stop busStop="3279422501" duration="30"/>  <!-- Gdańsk Wrzeszcz -->
    </trip>
    <trip id="87_bus_116:1" type="pt_bus" depart="388.0" departLane="best" from="1451328237#0" to="430532795">
        <stop busStop="3699707967" duration="30"/>  <!-- Galeria Bałtycka 06 -->
    </trip>
    <trip id="88_train_15111:0" type="pt_train" depart="389.0" departLane="best" from="321284935" to="999619920#2">
        <stop busStop="3279422501" duration="30"/>  <!-- Gdańsk Wrzeszcz -->
    </trip>
    <trip id="90_train_5500:0" type="pt_train" depart="406.0" departLane="best" from="239430023" to="321284936">
        <stop busStop="2472070935" duration="30"/>  <!-- Gdańsk Wrzeszcz -->
    </trip>
    <trip id="91_train_R:5" type="pt_train" depart="409.0" departLane="best" from="239430023" to="321284936">
        <stop busStop="2472070935" duration="30"/>  <!-- Gdańsk Wrzeszcz -->
    </trip>
    <trip id="92_tram_6:3" type="pt_tram" depart="410.0" departLane="best" from="182045481#0" to="182045481#4">
        <stop busStop="2448014062" duration="30"/>  <!-- Politechnika -->
        <stop busStop="1923923831" duration="30"/>  <!-- Miszewskiego 01 -->
        <stop busStop="1706849198" duration="30"/>  <!-- Jaśkowa Dolina 01 -->
        <stop busStop="1923923828" duration="30"/>  <!-- Klonowa -->
        <stop busStop="1923923896" duration="30"/>  <!-- Galeria Bałtycka 01 -->
    </trip>
    <trip id="93_tram_12:1" type="pt_tram" depart="418.0" departLane="best" from="182045481#0" to="182045481#4">
        <stop busStop="2448014062" duration="30"/>  <!-- Politechnika -->
        <stop busStop="1923923831" duration="30"/>  <!-- Miszewskiego 01 -->
        <stop busStop="1706849198" duration="30"/>  <!-- Jaśkowa Dolina 01 -->
        <stop busStop="1923923828" duration="30"/>  <!-- Klonowa -->
        <stop busStop="1923923896" duration="30"/>  <!-- Galeria Bałtycka 01 -->
    </trip>
    <trip id="94_tram_12:2" type="pt_tram" depart="422.0" departLane="best" from="24811285#3" to="24811285#6">
        <stop busStop="269557596" duration="30"/>  <!-- Galeria Bałtycka 02 -->
        <stop busStop="269557594" duration="30"/>  <!-- Klonowa -->
        <stop busStop="3680535418" duration="30"/>  <!-- Jaśkowa Dolina 02 -->
        <stop busStop="269557592" duration="30"/>  <!-- Miszewskiego 02 -->
        <stop busStop="1014671550" duration="30"/>  <!-- Politechnika -->
    </trip>
    <trip id="95_bus_149:1" type="pt_bus" depart="432.0" departLane="best" from="-397056711#1" to="430532795">
        <stop busStop="10582561979" duration="30"/>  <!-- Nad Stawem 01 -->
        <stop busStop="3701948568" duration="30"/>  <!-- Wrzeszcz PKP -->
        <stop busStop="3699707967" duration="30"/>  <!-- Galeria Bałtycka 06 -->
    </trip>
    <trip id="96_bus_158:4" type="pt_bus" depart="437.0" departLane="best" from="-368641585#1" to="-1027271884#2">
        <stop busStop="-3701948569" duration="30"/>  <!-- Wrzeszcz PKP -->
        <stop busStop="3715012929" duration="30"/>  <!-- Galeria Bałtycka 07 -->
        <stop busStop="-2076145884" duration="30"/>  <!-- Skarżyńskiego 01 -->
    </trip>
    <trip id="97_bus_158:5" type="pt_bus" depart="437.0" departLane="best" from="277203721" to="-1316855122#3">
        <stop busStop="2817336512" duration="30"/>  <!-- Wojska Polskiego 04 -->
        <stop busStop="3699707968" duration="30"/>  <!-- Galeria Bałtycka 05 -->
        <stop busStop="-9875512697" duration="30"/>  <!-- Wrzeszcz PKP -->
    </trip>
    <trip id="98_bus_127:2" type="pt_bus" depart="441.0" departLane="best" from="236832919#0" to="-1027271884#2">
        <stop busStop="3715012927" duration="30"/>  <!-- Jaśkowa Dolina 03 -->
        <stop busStop="3715012929" duration="30"/>  <!-- Galeria Bałtycka 07 -->
        <stop busStop="1770503190" duration="30"/>  <!-- Kilińskiego 02 -->
        <stop busStop="-2076145884" duration="30"/>  <!-- Skarżyńskiego 01 -->
    </trip>
    <trip id="99_bus_116:2" type="pt_bus" depart="457.0" departLane="best" from="29114711#0" to="-1316855122#3">
        <stop busStop="3702069139" duration="30"/>  <!-- Zabytkowa 01 -->
        <stop busStop="3699707968" duration="30"/>  <!-- Galeria Bałtycka 05 -->
        <stop busStop="-9875512697" duration="30"/>  <!-- Wrzeszcz PKP -->
    </trip>
    <trip id="100_tram_9:0" type="pt_tram" depart="465.0" departLane="best" from="182045481#0" to="182045481#4">
        <stop busStop="2448014062" duration="30"/>  <!-- Politechnika -->
        <stop busStop="1923923831" duration="30"/>  <!-- Miszewskiego 01 -->
        <stop busStop="1706849198" duration="30"/>  <!-- Jaśkowa Dolina 01 -->
        <stop busStop="1923923828" duration="30"/>  <!-- Klonowa -->
        <stop busStop="1923923896" duration="30"/>  <!-- Galeria Bałtycka 01 -->
    </trip>
    <trip id="101_bus_136:3" type="pt_bus" depart="467.0" departLane="best" from="61293509" to="430532795">
        <stop busStop="3701948568" duration="30"/>  <!-- Wrzeszcz PKP -->
        <stop busStop="3699707967" duration="30"/>  <!-- Galeria Bałtycka 06 -->
    </trip>
    <trip id="102_bus_110:3" type="pt_bus" depart="475.0" departLane="best" from="61293509" to="430532795">
        <stop busStop="3701948568" duration="30"/>  <!-- Wrzeszcz PKP -->