<?xml version="1.0" encoding="UTF-8"?>

<!-- generated on 2026-03-13T21:31:24.664568+01:00 by Eclipse SUMO netedit 1.26.0
-->

<additional xmlns:xsi="http://www.w3.org/2001/XMLSchema-instance" xsi:noNamespaceSchemaLocation="http://sumo.dlr.de/xsd/additional_file.xsd">
    <!-- Detectors -->
    <inductionLoop id="e1_0" lane="236811148_0" pos="28.60" period="300.00" file="e1_0.xml"/>
    <inductionLoop id="e1_1" lane="236811148_1" pos="28.23" period="300.00" file="e1_1.xml"/>
    <inductionLoop id="e1_10" lane="61316958_2" pos="8.20" period="300.00" file="e1_10.xml"/>
    <inductionLoop id="e1_11" lane="61316958_3" pos="8.17" period="300.00" file="e1_11.xml"/>
    <inductionLoop id="e1_12" lane="187938710#0_3" pos="47.19" period="300.00" file="e1_12.xml"/>
    <inductionLoop id="e1_13" lane="187938710#0_2" pos="47.42" period="300.00" file="e1_13.xml"/>
    <inductionLoop id="e1_14" lane="187938710#0_1" pos="47.68" period="300.00" file="e1_14.xml"/>
    <inductionLoop id="e1_15" lane="187938710#0_0" pos="47.97" period="300.00" file="e1_15.xml"/>
    <inductionLoop id="e1_16" lane="161297931#0_1" pos="57.69" period="300.00" file="e1_16.xml"/>
    <inductionLoop id="e1_17" lane="161297931#0_0" pos="57.26" period="300.00" file="e1_17.xml"/>
    <inductionLoop id="e1_18" lane="313992351#0_1" pos="1.78" period="300.00" file="e1_18.xml"/>
    <inductionLoop id="e1_19" lane="153776638#0_0" pos="2.01" period="300.00" file="e1_19.xml"/>
    <inductionLoop id="e1_2" lane="236811148_2" pos="28.73" period="300.00" file="e1_2.xml"/>
    <inductionLoop id="e1_20" lane="313992351#0_0" pos="1.01" period="300.00" file="e1_20.xml"/>
    <inductionLoop id="e1_21" lane="24811285#0_0" pos="961.34" period="300.00" file="e1_21.xml"/>
    <inductionLoop id="e1_22" lane="182045481#4.51_0" pos="557.93" period="300.00" file="e1_22.xml"/>
    <inductionLoop id="e1_24" lane="61316915_1" pos="22.89" period="300.00" file="e1_24.xml"/>
    <inductionLoop id="e1_25" lane="-1348067248_0" pos="30.08" period="300.00" file="e1_25.xml"/>
    <inductionLoop id="e1_3" lane="236811148_3" pos="28.80" period="300.00" file="e1_3.xml"/>
    <inductionLoop id="e1_4" lane="236811148_4" pos="28.68" period="300.00" file="e1_4.xml"/>
    <inductionLoop id="e1_5" lane="236811148_5" pos="28.21" period="300.00" file="e1_5.xml"/>
    <inductionLoop id="e1_6" lane="29092803_0" pos="7.18" period="300.00" file="e1_6.xml"/>
    <inductionLoop id="e1_7" lane="61316958_0" pos="8.26" period="300.00" file="e1_7.xml"/>
    <inductionLoop id="e1_8" lane="1347887395_0" pos="160.56" period="300.00" file="e1_8.xml"/>
    <inductionLoop id="e1_9" lane="61316958_1" pos="8.46" period="300.00" file="e1_9.xml"/>
</additional>
