<?xml version="1.0" encoding="UTF-8"?>

<!-- generated on 2026-03-14T19:13:58.592310+01:00 by Eclipse SUMO netedit 1.26.0
-->

<additional xmlns:xsi="http://www.w3.org/2001/XMLSchema-instance" xsi:noNamespaceSchemaLocation="http://sumo.dlr.de/xsd/additional_file.xsd">
    <!-- StoppingPlaces -->
    <busStop id="Galeria_Baltycka_03" lane="224821293#2_0" startPos="17.08" endPos="27.08" parkingLength="20.00"/>
    <busStop id="Galeria_Baltycka_04" lane="224821292#0_0" startPos="141.63" endPos="151.63" parkingLength="20.00"/>
    <busStop id="Galeria_Baltycka_06" lane="1451328237#0_0" startPos="17.39" endPos="27.39" parkingLength="20.00"/>
    <busStop id="Galeria_Baltycka_07" lane="287956205_0" startPos="24.76" endPos="34.76" parkingLength="20.00"/>
    <busStop id="bs_0" lane="182045481#4.51_0" startPos="591.06" endPos="601.06" parkingLength="20.00"/>
    <busStop id="bs_1" lane="24811285#3_0" startPos="41.49" endPos="51.49" parkingLength="20.00"/>
    <!-- Detectors -->
    <inductionLoop id="e1_21" lane="29092803_0" pos="0.00" period="300.00" file="../results/e1_21.xml"/>
    <inductionLoop id="e1_22" lane="1347887395_0" pos="150.00" period="300.00" file="../results/e1_22.xml"/>
</additional>
